Geom Title=Geometria2
Program Version=6.31
Viewing Rectangle= 1076174.72446706 , 1077510.85547684 , 1574224.24712594 , 1573365.95279931 

River Reach=River1          ,Reach1          
Reach XY= 100 
1077410.972082891573923.389534081077390.890278981573927.63760799
1077371.194663611573935.361378721077339.913392141573946.17465775
1077312.880194571573958.146502381077283.52986579 1573960.4636336
1077266.151381641573959.305067991077244.911012121573946.94703482
1077230.235847731573932.658058961077209.381666751573922.61715701
1077183.89322333 1573917.21051751077163.42523088 1573917.2105175
1077146.046746731573916.051951891077136.778221851573909.48674676
1077121.716868921573899.059656271077105.110761851573884.77068042
1077085.415146481573873.571212851077067.264285251573868.16457334
 1077052.9753094 1573867.7783848 1077034.05207111573865.84744212
1077018.604529631573863.144122361077003.156988171573853.10322041
1076993.502274751573843.062318461076985.392315481573831.09047382
1076979.599487431573819.891006261076973.806659381573809.46391577
1076966.855265721573800.581579421076955.655798161573790.15448893
1076941.093662071573780.296507681076931.436913941573776.43380843
1076905.501647541573776.433808431076885.912244191573776.43380843
  1076869.9096331573773.398830451076853.079300551573770.91566664
1076840.111667351573766.225246121076826.316312871573761.25891851
1076816.383657661573754.085334191076808.658259151573743.60086479
1076799.82923229 1573730.3573245 1076797.07016141573721.80420473
1076792.655647971573710.492014061076791.00020543 1573696.4207525
1076789.62066998 1573680.69404841076793.759276321573673.24455699
 1076794.31109051573662.208273411076791.000205431573647.58519767
1076782.447085661573631.582586491076776.377129691573623.02946671
1076755.960005071573617.235417841076715.677570021573619.44267455
 1076703.74458841573618.614953281076683.18951024 1573618.0631391
1076664.979642341573619.99448873 1076652.8397304 1573623.3053738
1076643.458889361573628.685562051076633.112373511573638.89412435
1076628.697860081573644.688173231076620.972461571573653.51720009
1076621.800182841573659.725109611076617.385669411573670.89934673
1076606.625292921573681.245862581076602.210779491573686.35014374
1076599.727615691573686.764004371076596.140823521573684.83265474
1076590.760635281573684.280840561076582.345469051573686.90195791
1076576.689373721573685.246515381076570.20555712 1573683.4531193
1076558.617459361573674.762045981076552.133642761573670.07162546
1076544.684151351573667.174601021076542.200987541573659.72510961
1076535.993078031573651.723804011076531.164703971573644.82612678
1076525.232701541573645.102033871076519.990466841573637.51458891
1076510.195765171573631.444632941076503.849902111573630.89281876
1076487.847290931573633.100075481076483.708684591573634.61756447
1076473.500122281573642.342962971076471.844679741573648.13701185
1076471.292865561573654.344921361076463.567467061573659.72510961
1076451.01369449 1573668.96799711076444.391924341573676.83134915
1076436.666525841573682.62539803 1076432.52791951573686.76400437
1076431.562244681573690.074889441076425.354335171573694.62735642
1076418.318704391573691.040564261076411.834887791573692.28214616
1076405.213117641573700.283451751076400.798604211573704.56001164
1076389.624367091573706.21545417 1076381.62306151573709.80224634
 1076376.38082681573712.975177861076369.759056651573717.94150547
1076367.275892851573725.528950431076350.583513941573741.94542225
Rch Text X Y=,
Reverse River Text= 0 

Type RM Length L Ch R = 1 ,1347    ,43.1,43.1,43.1
XS GIS Cut Line=3
1077392.021373371573623.194046881077406.432647751573919.65454828
 1077445.54896391574185.23374746
Node Last Edited Time=Jan/02/2023 18:29:52
#Sta/Elev= 271 
       0   68.94     1.2   68.85     2.2   68.81     3.2   68.79     4.2   68.82
     6.3   68.84     8.3   68.95     9.3   68.94    12.3   68.83    14.1   68.81
    15.3   68.77    19.3   68.93    20.3   68.95    21.3   68.95    24.3   68.86
    25.3   68.86    27.3   68.94    31.3   69.02    33.3   69.11    35.3   69.15
    38.3   69.14    40.3   69.16    41.3   69.15    44.7   69.01    46.3   68.98
    49.3   69.04    52.3   69.07    53.3   69.11    54.3   69.09    56.3      69
    57.3   68.98    62.3   69.01    65.3   68.96    67.3   69.11    68.3   69.13
    70.3   69.01    71.4      69    76.3   69.01    79.3   69.07    81.3   69.04
    84.3   69.05    85.3   69.07    87.3   69.17    88.3   69.15    89.3   69.08
    90.4   69.05    91.4   69.08    97.4   69.09    99.4   69.16   100.4   69.17
   103.4   69.09   105.4   69.07   106.4    69.1   107.4   69.21   108.4   69.35
   109.4   69.38   110.4   69.34   112.4   69.19   118.4   69.12   123.4   69.07
   126.4   69.13   128.4   69.11   131.4   69.14   133.5    69.1   136.4   69.07
   138.4   69.17   141.4    69.2   145.4   69.29   147.4   69.23   150.4   69.22
   153.4   69.18   154.5   69.19   156.4   69.23   157.4   69.24   159.4   69.22
   162.8   69.28   165.4   69.26   168.4   69.39   169.4    69.4   172.4   69.34
   173.3   69.34   175.4   69.34   178.5   69.39   184.5   69.35   185.5   69.37
   189.5   69.39   191.7   69.37   194.5   69.42   195.5   69.35   196.5   69.23
   197.5   69.16   198.5   69.16   200.5   69.21   201.2   69.22   204.5   69.15
   206.5   69.14   208.5   69.15   211.5   69.19   214.5   69.12   216.5    69.1
   218.5   69.16   219.5   69.17   221.5   69.12   226.5   69.05   231.5   69.11
   235.5   69.05   236.5   69.05   241.3   69.18   245.5   69.25   249.5   69.29
   252.5   69.26   256.5   69.28   259.5   69.26   265.6   69.32   270.6   69.23
   272.3   69.21   275.6   69.21   278.6   69.27   279.6   69.26   280.7   69.21
   281.7   69.21   282.4   69.24   283.4   69.23   283.669.21834   284.6   69.16
   284.7   69.14   285.6   68.96   286.6   68.59   290.6   66.84   293.6   65.45
   295.8   64.52   296.6    64.2   297.6   63.94   298.6   63.86   302.7   63.88
   303.7   63.98   304.7   64.32   305.5   64.81   307.7   66.12   308.7   66.68
   309.7   67.12   310.7   67.36   311.7   67.49   314.8   67.82   315.8   67.92
   316.8   67.95   317.8   67.84   318.8   67.69   319.8   67.57   320.9   67.52
   321.9   67.51   322.9   67.52   323.7   67.58   324.9   67.64   326.9   67.59
   327.9   67.61     332   67.77   333.2   67.85     334   67.95     335   68.12
     336    68.3     337   68.52   337.3   68.58   337.468.60834   337.9   68.75
     339   69.01   340.1   69.15   341.1   69.25   342.1   69.33   343.1   69.37
   344.3   69.33   346.1   69.21   347.1   69.21   349.2   69.39   350.2   69.37
   351.4   69.29   352.2   69.26   354.2   69.35   355.2   69.34   360.3   69.11
   361.3    69.1   366.3   69.12   367.5   69.12   370.4   69.06   373.4   69.09
   375.4   69.05   377.5      69   381.3   68.97   384.5   69.03   387.6   69.01
   390.6   69.05   391.6   69.05   394.6   69.01   397.7   69.04   400.7      69
   403.7   69.03   405.8   68.98   408.8   68.96   410.8   68.89   413.8   68.84
   415.7   68.88   416.9   68.89   418.9   68.87     421   68.83   422.7   68.85
   425.4   68.96     426   68.98     427   68.98     431   68.81     432    68.8
   434.1   68.83   435.9    68.8   440.1   68.79   442.1   68.88   443.2    68.9
   444.2   68.88   445.6   68.81   447.2   68.78   448.3   68.79   450.2   68.86
   454.3   68.82   456.3   68.77     458   68.79   460.6   68.88   463.4   68.88
   465.4   68.94   466.4   68.95   469.4   68.81   470.7   68.82   472.5   68.85
   473.5   68.85   475.5   68.81   478.5   68.83   481.6   68.72   484.4   68.67
   486.1   68.69   487.9   68.74   489.7   68.75   495.7   68.65   497.9   68.63
   499.8    68.6   503.8   68.71   504.6    68.7   506.4    68.6   507.8   68.55
   511.9   68.55   515.9   68.44   517.9   68.42     519   68.44     522   68.58
   522.3   68.59   522.8   68.62     524   68.64   527.1   68.57   529.3   68.56
   532.3   68.59   534.1   68.64   536.1   68.72     539   68.76   540.2   68.75
   542.2   68.77   546.9   68.67   550.3   68.65   552.3   68.66   554.3    68.7
   558.4   68.76   561.4   68.76   563.7   68.81   564.3   68.81   564.5   68.82
   565.3   68.79
#Mann= 3 ,0,0
       0    .035       0   284.7     .03       0   337.4    .035       0
Bank Sta=284.7,337.4
XS Rating Curve= 0 ,0
XS HTab Starting El and Incr=64.01,0.27, 20 
XS HTab Horizontal Distribution= 5 , 5 , 5 
Exp/Cntr(USF)=0,0
Exp/Cntr=0.3,0.1

Type RM Length L Ch R = 1 ,1304    ,22.1,22.1,22.1
XS GIS Cut Line=4
1077351.30208199 1573621.1352934 1077361.59584941573901.12576695
1077365.713356361573934.065822661077398.653412071574176.99873353
Node Last Edited Time=Jan/02/2023 18:28:19
#Sta/Elev= 254 
       0   68.82     1.3   68.85     2.3   68.83     4.3   68.76     6.3   68.74
     8.3   68.77    13.3   68.78    15.3    68.8    19.3   68.81    20.4    68.8
    21.3    68.8    22.3   68.84    23.3   68.85    24.3   68.84    26.3   68.77
    27.3   68.75    28.3   68.76      30   68.72    31.3   68.71    34.3   68.78
    36.3   68.77    38.3   68.79    40.3   68.78    42.3   68.81    45.3   68.77
    47.3   68.79    49.3   68.77    50.3   68.78    51.3   68.83    52.3   68.84
    53.3   68.82    56.3   68.81    58.7   68.91    61.3   68.97    67.3   68.95
    69.6   68.96    72.2   68.93    74.4   68.84    78.4   68.84    79.4   68.84
    82.4   68.92    84.4   68.89    86.4   68.93    87.4   68.92    88.4   68.89
    89.4   68.88    91.4   68.98    92.4      69    95.4   68.94    97.4   68.97
    99.4   69.02   103.4   69.07   104.4   69.05   105.4      69   106.3   68.98
   109.4   68.98   111.4   68.96   114.4      69   117.4   68.95   120.4   68.96
   122.4   68.99   134.4   68.99   135.4      69   137.4   69.09   139.4   69.13
   140.4   69.11   144.4   68.95   146.4   68.93   148.4   68.98   153.4   68.95
   156.3   68.98   158.4   69.02   162.4   68.96   165.4   68.93   168.8   68.97
   172.4   69.06   175.4   69.07   177.4   69.04   181.4   69.04   182.5   69.07
   186.4    69.1   187.4   69.08   192.2    69.1   199.4   69.07   202.4   69.01
   210.5   68.95   212.5   68.92   214.4   68.94   218.5    68.9   220.5   68.82
   221.5   68.81   226.5   68.86   229.5   68.83   233.7   68.83   234.7   68.86
   236.6   68.96   237.6   68.94   239.5   68.82   242.4   68.79   244.5   68.73
   245.5   68.73   249.5   68.81   253.5   68.81   255.9   68.85   258.5   68.86
   260.5    68.9   264.5   68.88   268.5   68.96   270.4   68.97   272.5   68.95
   273.3   68.96   275.5   69.05   276.8   69.14   279.5   69.36   280.5    69.4
   282.5   69.36   283.5   69.35   286.3    69.4   288.6   69.46   289.6   69.45
   291.7   69.34   292.6   69.31   295.3   69.38   297.6   69.37   299.6   69.42
   300.1  69.405   300.6   69.39   301.7   69.25   302.7   69.03   303.7   68.69
   304.7   68.24   306.7    67.2   307.7    66.8   309.7   66.24   311.7    65.6
   313.4   65.17   314.5    64.9   316.8   64.36   317.8   64.17   318.8   64.06
   319.4   64.18   319.8   64.27   320.8   64.83   321.8   65.53   322.8   66.19
   323.8   66.64     325   66.92   326.9   67.27   327.9   67.44   328.9   67.55
   329.9   67.54     331   67.43   332.9   67.16   333.9   67.09   334.9   67.07
     336   67.13     337   67.24     338   67.38     339   67.55   340.2   67.82
     343   68.49   343.1  68.512     344   68.71     345    68.9   347.1    69.2
   348.1   69.31   349.1   69.34   350.1   69.32   353.1   69.23   355.1    69.2
   358.5   69.23   359.2   69.24   361.2   69.33   362.1   69.35     363   69.34
   365.2   69.23   368.2   69.17   371.3   69.06   372.3   69.04   374.5   69.02
   377.3   68.96   381.4   69.01   383.4   69.02   384.4   69.05   385.4   69.06
   388.4   68.97   390.9   68.95   393.9    68.9   397.5   68.91   399.5   68.96
   400.5   68.96   402.9   68.91   408.3   68.96   409.6   68.95   413.7   68.87
   414.7   68.89   416.7   68.96   417.7   68.94   420.7   68.82   422.5   68.79
   424.8   68.78   429.8   68.86   432.8    68.8   434.8   68.81   437.9   68.77
   439.9   68.78   442.9   68.86   443.9   68.87     447   68.77     448   68.78
   449.1   68.85     450   68.92     451   68.96     452   68.91     454   68.75
     455   68.72   459.1   68.66   465.1   68.64   470.2   68.65   472.2    68.7
     474   68.78   475.2   68.81   477.2   68.82   481.4   68.77   485.3   68.75
   488.3   68.71   489.3   68.69   491.4   68.61   492.4    68.6   497.4    68.6
   505.1   68.51   509.5   68.51   510.6   68.54   513.6   68.64     514   68.64
   517.6   68.56     520   68.55   522.6   68.51   526.5   68.51   528.7   68.48
   529.7   68.49   532.3   68.56   534.8   68.59   535.8   68.64   537.8   68.78
   538.8   68.84   539.8   68.83   544.8   68.56   549.6   68.58   551.5   68.55
   553.1   68.54   555.8   68.47     557   68.46   558.5   68.46
#Mann= 3 ,-1,0
       0    .035       0   300.1     .03       0   343.1    .035       0
Bank Sta=300.1,343.1
XS Rating Curve= 0 ,0
XS HTab Starting El and Incr=64.21,0.26, 20 
XS HTab Horizontal Distribution= 5 , 5 , 5 
Exp/Cntr(USF)=0,0
Exp/Cntr=0.3,0.1

Type RM Length L Ch R = 1 ,1282    ,21.8,21.8,21.8
XS GIS Cut Line=4
1077324.356905581573624.973752451077341.735389421573920.40797764
1077349.052645771573970.714115061077371.919071871574171.02400768
Node Last Edited Time=Jan/03/2023 15:36:46
#Sta/Elev= 248 
       0   68.72     1.5   68.76     2.5   68.76     5.5    68.7     7.5   68.71
     8.5    68.7    10.5   68.73    14.5   68.71    15.5   68.72    18.5   68.87
    20.5   68.93    21.5   68.91    23.5   68.69    24.5   68.65    26.5   68.71
    27.5   68.72    29.6   68.68    33.5   68.67    35.5   68.72    36.5   68.71
    37.5   68.71    40.5   68.78    41.5   68.78    42.5   68.72    43.5    68.7
    44.5    68.7    47.5   68.76    49.5   68.73    51.6   68.77    53.6   68.73
    57.6   68.76    59.8   68.81    60.6   68.82    63.6   68.77    64.6   68.78
    65.6   68.81    67.6   68.81    69.6   68.85    71.6   68.81    76.6   68.77
    79.6   68.86    80.6   68.87    81.6   68.86    83.6    68.8    84.4    68.8
    86.6   68.84    89.2   68.85    91.6   68.92    92.6   68.92    94.6   68.89
    96.6   68.96    97.6   68.97   100.6   68.88   102.6   68.94   107.7   68.97
   108.7   68.96   110.7   68.91   115.7   68.92   118.5   68.85   119.7   68.85
   121.7    68.8   125.7   68.89   131.7   68.87   134.7   68.81   136.7   68.82
   137.7    68.8   138.7   68.82   140.7   68.93   141.7   68.94   143.7   68.94
   145.9    68.9   149.7   68.94   155.7   68.89   157.7   68.93   160.1   68.93
   161.7   68.96   164.8    68.9   168.8   68.87   171.8   68.85   174.8   68.86
   178.1   68.83   179.8   68.83   182.7   68.88   183.8   68.88   186.8   68.81
   189.8   68.84   190.8   68.83   193.8   68.74   197.8    68.8   199.8    68.8
   201.7   68.78   205.8   68.78   208.8   68.73   213.8   68.71   215.9   68.73
   218.8   68.84   219.8   68.84   222.8   68.74   223.9   68.74   228.9    68.8
   232.9   68.78   238.6   68.81   240.9   68.78   241.9   68.78   243.9   68.85
   245.9   68.89   249.8   68.87   252.8    68.9   254.9   68.88   255.9   68.89
   257.9   68.96   258.9   68.97   262.9   68.98   265.9   68.95   268.9   69.02
   269.9   69.01   271.9   68.96   274.9   69.02   276.9   69.12   277.9   69.14
   279.9   69.07   280.9   69.08     283   69.16     290    69.5     291   69.52
     292    69.5     293   69.44     298   69.09     299   68.98     301   68.68
     302   68.56   304.1   68.39   306.1   68.12   307.1   67.95   308.1   67.73
   309.1   67.44   311.1   66.82   312.1   66.47   313.2      66   315.2    64.9
   316.2   64.39   317.2   64.01   318.2   63.84   319.2    63.8   322.2   63.76
   323.3   63.83   324.3   64.04   328.3   65.36   330.3   66.08   331.3   66.35
   332.4   66.49   333.4   66.56   334.4   66.64   335.4   66.77   336.4   66.93
   337.4   67.13   338.4   67.36   342.5   68.41     34368.53609   344.8   68.99
   345.7   69.17   346.5   69.28   347.5   69.27   349.8   69.11   350.5   69.08
   351.5   69.07   354.6   69.14   356.6   69.08   357.6   69.12   358.6   69.21
   359.6   69.26   363.6   69.19   364.7   69.14   367.6   69.05   369.7   68.95
   370.7   68.96   372.7   69.01   376.7   68.93   379.7   68.98   381.8   68.93
   384.7   68.92   389.1   68.87     390   68.87     393   68.91   395.8   68.87
   398.8   68.87   401.7   68.82   402.9   68.81   405.9   68.85   407.7   68.85
   410.9   68.76   411.9    68.8   412.9   68.87   413.9   68.93   414.9   68.93
     417    68.9     418   68.91     420   68.96     425   68.84   432.1   68.85
   435.1   68.79   441.5   68.76   444.1   68.78   446.1   68.82   448.2   68.75
   449.2   68.73   455.9   68.79   460.2   68.85   461.2   68.85   464.3   68.73
   465.3   68.72   466.3   68.75   468.3   68.94   469.3   69.01   470.3   69.02
   471.3   68.97   473.3   68.76   474.3   68.71   476.7   68.73   480.3    68.8
   484.4   68.86   485.4   68.85   487.4   68.79   491.1   68.74   494.5   68.64
   500.5   68.56   502.5   68.57   505.6   68.66   507.5   68.68   508.5   68.67
   509.6   68.62   510.6   68.55     511   68.53   511.6    68.5   512.6   68.52
   516.6    68.7   517.6    68.7   519.6    68.6   522.6   68.48   524.7   68.49
   526.7   68.45   531.6   68.43   535.4   68.46   538.7   68.51   542.6   68.47
   544.8   68.46   546.8   68.42   548.4   68.42
#Mann= 1 ,-1,0
       0   -9999       0
Bank Sta=301,343
XS Rating Curve= 0 ,0
XS HTab Starting El and Incr=63.91,0.28, 20 
XS HTab Horizontal Distribution= 5 , 5 , 5 
Exp/Cntr(USF)=0,0
Exp/Cntr=0.3,0.1

Type RM Length L Ch R = 1 ,1260    ,31.5,31.5,31.5
XS GIS Cut Line=3
1077301.891998421573623.194046881077324.538286721573946.41834355
1077345.125821541574170.82247308
Node Last Edited Time=Jan/02/2023 18:28:19
#Sta/Elev= 266 
       0   68.91     1.4   68.85     4.2   68.87     5.3   68.81     6.1   68.79
    11.7   68.71    12.3    68.7    13.3   68.72    15.4   68.68    17.3   68.68
    19.3   68.73    22.3   68.66    24.3   68.62    27.3   68.68    28.6   68.67
    30.3   68.69    32.3   68.68    34.3   68.69    37.3   68.65    38.3   68.66
    40.3    68.7    42.6   68.77    45.4   68.82    46.4   68.83    48.4    68.8
    51.4   68.86    52.4   68.86    56.4   68.75    57.4   68.75    59.4   68.77
    61.4   68.77    62.3   68.75    63.4   68.71    66.4   68.73    68.4   68.69
    70.4   68.69    73.4    68.8    75.4   68.84    76.4   68.84    78.4    68.8
    80.4   68.86    81.4   68.87    83.4   68.83    84.5   68.84    85.5   68.87
    87.5      69    88.5   69.01    90.5   68.92    92.5   68.86    94.1   68.86
    95.5   68.88    97.5   68.85    99.5   68.85   105.5   68.87   106.7    68.9
   108.5    68.9   112.5   68.97   115.5   68.94   116.5   68.95   117.5   69.02
   118.5   69.06   119.5   69.07   121.5   68.95   122.5   68.95   124.5   69.04
   125.6   69.06   126.6   69.05   128.6   68.97   129.7   68.97   131.6   69.03
   132.6   69.03   133.6   68.99   134.6   68.92   135.6    68.9   142.6   68.87
   144.6   68.92   145.6   68.89   146.6    68.9   148.6   68.99   149.6   69.05
   150.6   69.08   151.6      69   152.6   68.91   153.6   68.85   154.6   68.83
   157.6   68.85   159.6    68.8   161.6   68.79   164.6   68.75   166.7   68.78
   167.7   68.78   169.7   68.72   171.7   68.74   178.7   68.74   179.7   68.76
   181.7   68.82   184.7   68.86   185.7   68.85   187.7   68.77   188.7   68.76
   189.7   68.77   191.7   68.73   192.7   68.75   194.7   68.85   195.7   68.86
   198.1   68.74   198.7   68.73   199.7   68.72   202.7   68.75   204.7   68.84
   205.7   68.86   207.8   68.84   209.8   68.77   210.8   68.75   213.4   68.76
   215.8    68.8   217.8    68.8   219.8   68.85     221   68.87     229   68.81
   232.8   68.82   239.8   68.89   242.8   68.82     244   68.82   246.8   68.92
   247.9   68.94   251.9   68.86   254.9   68.83   255.9   68.83   258.9   68.89
   261.8    68.9   266.9   68.88   268.9   68.92   271.2   68.88   274.9   68.88
   277.9   68.95   279.9   69.02   281.9   69.04   285.9   69.24   286.9   69.26
     289   69.25     291   69.33     292   69.34     295   69.19     297   69.17
     298   69.14   301.5  68.916     303   68.82     310    68.3   313.3    68.1
   314.3      68     315   67.89     317   67.53     318   67.42     319    67.4
     321   67.41     322   67.27     323   66.84     324   66.12     325   65.26
     326   64.51     327   63.98   328.1   63.78   329.1   63.76   335.1   63.79
   336.1   63.89   337.1   64.22   338.1   64.74   339.3   65.39   340.1   65.81
   341.1   66.28   342.2   66.67   343.1   66.97   344.1   67.35   346.1   68.16
   347.1   68.49   347.868.66499   348.1   68.74   349.1   68.94   350.1   69.12
     351   69.24   352.2   69.34   353.2   69.33   356.2   69.19   358.2   69.14
   360.2   69.15   363.2   69.25   364.2   69.22     365   69.16   366.2    69.1
   369.2   69.04   370.2   69.02   371.2   69.02   373.2   69.07   374.2   69.05
   375.3      69   376.3   68.96   378.3   68.94   383.3   68.96   385.3   69.05
   386.3   69.07   389.3   69.08   390.3   69.07   393.3   68.97   396.3   68.93
   399.4      69   403.4    68.9   405.4   68.84   406.4   68.83   411.4   68.84
   413.4   68.82   416.4   68.93   417.4   68.93   420.2   68.87   421.4   68.85
   423.5   68.88   428.5   68.86   431.5   68.77   432.5   68.76   433.5   68.78
   435.5   68.85   436.5   68.87   438.6   68.86   441.5   68.88   443.5   68.83
   450.9   68.74   452.6   68.74   455.6   68.81   457.6   68.79   459.8   68.79
   462.5   68.74   465.6   68.78   466.6   68.76   468.6    68.7   469.6   68.71
   471.7   68.79   473.7   68.84   480.7   68.83   484.6   68.77   489.7   68.86
   490.1   68.85   490.7   68.82   492.7   68.71   493.7   68.68   496.6   68.64
   499.8   68.65   504.8   68.61   511.8   68.66   515.9   68.61   517.7   68.55
   519.9    68.5   524.9   68.42   525.9   68.43   528.9   68.55   529.9   68.54
   532.9   68.41   535.9   68.38   537.9   68.41   538.9   68.46   539.8   68.52
   539.9   68.53   540.9   68.57   541.2   68.57   541.9   68.56     544   68.49
   549.4   68.36
#Mann= 3 ,-1,0
       0    .035       0   301.5     .03       0   347.8    .035       0
Bank Sta=301.5,347.8
XS Rating Curve= 0 ,0
XS HTab Starting El and Incr=63.91,0.27, 20 
XS HTab Horizontal Distribution= 5 , 5 , 5 
Exp/Cntr(USF)=0,0
Exp/Cntr=0.3,0.1

Type RM Length L Ch R = 1 ,1229    ,22.2,22.2,22.2
XS GIS Cut Line=4
1077270.392139991573628.632380631077294.173223131573903.94415085
1077295.08788018 1573979.86068551077297.831851311574156.38949498
Node Last Edited Time=Jan/03/2023 15:37:02
#Sta/Elev= 256 
       0   68.69     2.8   68.67       6   68.48       7   68.45     8.8   68.44
    12.9   68.56    17.7   68.58    22.9   68.71    23.9   68.74    25.9   68.86
    26.9   68.89    28.9   68.87      31    68.9    32.9    68.9    33.9   68.89
    35.9   68.83      39   68.84      42   68.83      44    68.9      45    68.9
    46.7   68.86      49   68.84      53   68.89      57   68.82      59   68.84
      61    68.9      62   68.89      63   68.83      64   68.79      65   68.81
    67.1   68.89    73.1    68.9    74.1   68.88    77.1   68.75    78.1   68.74
    83.1   68.85    86.1   68.95    87.1   68.96    95.2   68.88    98.2   68.87
   100.2   68.89   102.2   68.85   103.2   68.85   105.2   68.92   106.2   68.93
   108.2   68.83   109.2   68.79   111.2   68.81   113.2   68.75   114.2   68.74
   116.9   68.75   119.2   68.74   123.3   68.81   126.3   68.78   129.3   68.73
   131.3   68.77   132.3   68.75   133.3    68.7   134.3   68.68   136.3   68.72
   140.3   68.73   142.3   68.79   145.1   68.77   146.3   68.79   149.4   68.92
   151.1   69.06   152.4   69.11   153.4   69.04   155.4   68.83   156.4   68.79
   159.4   68.79   162.4   68.81   166.8   68.69   168.4   68.69   169.3    68.7
   170.4   68.71   173.3   68.59   174.8   68.58   177.5   68.61   180.5   68.72
   183.5   68.68   184.4   68.68   186.5   68.76   188.5   68.79   189.5   68.79
   192.5   68.73   197.3    68.8   199.5   68.77   202.6   68.82   205.6   68.73
   210.6   68.78   216.6   68.74   218.6   68.76   221.6   68.73   222.6   68.74
   223.6   68.79   225.6   68.93   226.6   68.96   227.7   68.97   230.7   68.92
   232.7   68.92     237   68.85   238.9   68.86   243.7   68.93   245.7   69.01
   246.7      69   247.7   68.95   248.7   68.92   251.7   68.88   252.7   68.88
   255.8   68.94   257.8   68.92   258.8   68.94   259.8   68.99   260.8   69.01
   262.8   68.97   263.7   68.99   265.8   69.08   266.6   69.09   269.8   68.98
   270.8   68.99   271.8   69.01   272.8   69.05   274.8   69.18   275.8   69.21
   277.8   69.23   278.8    69.2   279.8   69.09   282.8   68.57   283.6 68.4004
   287.8   67.51   288.8   67.34   289.8   67.23   290.8   67.17   294.8   67.13
   295.8    67.1   298.8   66.99   301.8   66.98   302.8   66.99   303.8   67.05
   304.8   67.13   310.8   67.71   311.8   67.75   312.8   67.74   313.8   67.64
   315.8   67.38   316.8   67.28   317.8    67.2   318.8   67.15   321.8    67.1
   322.8   67.05   323.8   66.84   324.8   66.44   325.8   65.93   327.8   64.78
   328.8   64.26   329.8   63.97   330.8   63.99   331.1   64.05   331.5   64.12
   332.6   64.37   338.8   66.09   339.8   66.41   340.8   66.88   342.8   68.11
   343.8   68.54   344.8   68.85   344.9  68.873   345.8   69.08   346.8   69.21
   347.8   69.25   348.9   69.23   351.9   69.09   352.9   69.07   353.8   69.09
   354.8   69.13   357.8   69.31   359.8   69.45   360.9    69.5   361.8   69.49
   362.8   69.44   364.8   69.27   365.8   69.22   370.8   69.21   373.5   69.23
   376.5   69.17   377.5   69.19   378.8   69.23   379.8   69.22   380.8   69.17
   381.8   69.15   383.8   69.24   384.8   69.23   385.8    69.2   389.8   69.11
   392.8    69.1   396.8   69.02   398.8   69.01   401.8   68.89   403.8   68.87
   405.8   68.89   410.7      69   411.8   69.01   413.9   68.97   416.9   68.88
   418.8   68.84   422.9   68.86   425.8   68.84   426.8   68.86     429   68.95
     430   68.96   432.8   68.96   441.8   68.82   444.8   68.89   446.8    68.9
   447.8    68.9   449.8   68.83   450.8   68.81   452.8   68.83   455.8   68.98
   456.8   68.98   461.8   68.86   464.1   68.83   469.9   68.69   470.9   68.69
   472.9   68.73   474.7   68.68   475.9   68.68   478.8    68.7   482.9   68.69
   483.9   68.72   484.9   68.78   485.8   68.89   487.9   69.14   488.9   69.22
   489.9   69.25   490.9    69.2   491.9    69.1   493.9   68.83   494.9   68.71
   495.9   68.65   496.9   68.65   498.6   68.69   499.6   68.69   505.9   68.59
   511.9   68.45   513.9   68.46   515.9   68.53   516.9    68.5   517.9   68.45
   518.9   68.43   520.9   68.44   523.5   68.36   523.9   68.36   526.2   68.38
   528.8   68.36
#Mann= 1 ,-1,0
       0   -9999       0
Bank Sta=283.6,344.9
XS Rating Curve= 0 ,0
XS HTab Starting El and Incr=64.12,0.27, 20 
XS HTab Horizontal Distribution= 5 , 5 , 5 
Exp/Cntr(USF)=0,0
Exp/Cntr=0.3,0.1

Type RM Length L Ch R = 1 ,1207    ,42.8,42.8,42.8
XS GIS Cut Line=3
1077246.305654411573633.487814291077275.128203161573934.06582266
1077254.540668341574152.29369174
Node Last Edited Time=Jan/02/2023 18:28:19
#Sta/Elev= 248 
       0   68.53       1   68.56       4   68.72     4.4   68.72       5   68.73
       7   68.67       9   68.59      11   68.64      13    68.6      15   68.73
    16.3   68.76      19   68.77      21   68.72    22.1   68.75    25.1   69.02
    26.1   69.05    28.1   68.96    29.1   68.94    31.1   68.96    33.1    68.9
    35.1   68.81    38.1   68.76    39.1   68.76    40.1    68.8    43.1   68.87
    48.4   68.81    49.2   68.81    51.2   68.86    53.2   68.81    54.2   68.81
    57.2   68.88    58.2   68.86    59.2   68.82    60.2    68.8    62.2   68.82
    63.2    68.8    65.2   68.78    66.3   68.79    68.5   68.87    69.3   68.88
    71.3   68.85    73.3   68.89    74.3   68.86    76.3   68.84    77.3   68.82
    78.3   68.82    79.3   68.86    82.3   68.91    83.3   68.84    84.3    68.8
    86.3   68.79    89.4   68.84    90.5   68.82    92.4   68.88    93.3   68.89
    96.4   68.85    98.4   68.96    98.8   68.96   101.3   68.93   103.4   68.85
   104.4   68.84   107.4   68.88   108.4   68.89   111.5   68.85   113.5    68.8
   116.2   68.85   119.5   68.81   121.7   68.84   122.5   68.83   125.4   68.75
   127.5   68.74   130.5    68.7   131.6    68.7   134.5   68.75   136.6   68.71
   139.6   68.74   143.7    68.7   146.6   68.66   150.6   68.75   157.5   68.79
   159.7   68.86   160.7   68.87   161.7   68.84   163.9   68.73   167.7   68.72
   171.7   68.66   174.7   68.66   177.8   68.59   185.8   68.62   189.8   68.68
   192.8   68.78     195   68.74     196   68.77   198.9    68.9   199.9   68.93
   202.9   68.81   203.9   68.84   205.9   68.96   206.9   68.96   208.9   68.84
   209.7   68.82   210.9   68.81   214.9   68.82   216.8   68.85     223   68.88
     226   68.88     228   68.82     232   68.87     234   68.96     235   68.98
     237   68.96     239   68.88     240   68.86   241.1   68.87   243.1   68.92
   244.1   68.93   247.3   68.91     250   68.88   251.1   68.88   252.1   68.89
   255.1   68.98   258.1   68.98   263.2      69   264.6   69.04   265.2   69.05
   267.2    69.2   269.2   69.39   270.2   69.44   271.2   69.43   273.2   69.34
   273.9    69.3   274.2   69.28   275.2   69.18   276.2   68.97   277.2    68.7
   278.2   68.43   279.2    68.2   281.2   67.79   283.2   67.41   284.2   67.24
   285.3    67.1   286.3   66.99   288.3    66.8   290.3   66.65   291.3   66.61
   292.3   66.62   296.3   66.81   297.3   66.87   298.3   66.98   299.3   67.12
   302.3   67.65   303.3   67.77   304.3   67.85   305.3   67.88   306.3   67.87
   307.4   67.83   308.4   67.75   309.4   67.62   312.3   67.06   313.4    66.9
   317.4   66.38   318.4   66.18   319.4    65.9   320.4   65.56   323.4    64.4
   324.3   64.09   325.4   63.84   326.4   63.77   330.5   63.78   331.5   63.81
   332.5   63.96   333.5   64.34   336.5    65.9   337.5    66.4   338.5   66.88