Geom Title=Geometria2
Program Version=6.31
Viewing Rectangle= 1076174.72446706 , 1077510.85547684 , 1574224.24712594 , 1573365.95279931 

River Reach=River (Missing) ,Reach (Missing) 
Reach XY= 2 
 1077410.31729071573904.48819311 1077410.31729071573906.48819311
Rch Text X Y=1077410.3172907,1573904.9881931
Reverse River Text= 0 

River Reach=River1          ,Reach1          
Reach XY= 100 
1077410.972082891573923.389534081077390.890278981573927.63760799
1077371.194663611573935.361378721077339.913392141573946.17465775
1077312.880194571573958.146502381077283.52986579 1573960.4636336
1077266.151381641573959.305067991077244.911012121573946.94703482
1077230.235847731573932.658058961077209.381666751573922.61715701
1077183.89322333 1573917.21051751077163.42523088 1573917.2105175
1077146.046746731573916.051951891077136.778221851573909.48674676
1077121.716868921573899.059656271077105.110761851573884.77068042
1077085.415146481573873.571212851077067.264285251573868.16457334
 1077052.9753094 1573867.7783848 1077034.05207111573865.84744212
1077018.604529631573863.144122361077003.156988171573853.10322041
1076993.502274751573843.062318461076985.392315481573831.09047382
1076979.599487431573819.891006261076973.806659381573809.46391577
1076966.855265721573800.581579421076955.655798161573790.15448893
1076941.093662071573780.296507681076931.436913941573776.43380843
1076905.501647541573776.433808431076885.912244191573776.43380843
  1076869.9096331573773.398830451076853.079300551573770.91566664
1076840.111667351573766.225246121076826.316312871573761.25891851
1076816.383657661573754.085334191076808.658259151573743.60086479
1076799.82923229 1573730.3573245 1076797.07016141573721.80420473
1076792.655647971573710.492014061076791.00020543 1573696.4207525
1076789.62066998 1573680.69404841076793.759276321573673.24455699
 1076794.31109051573662.208273411076791.000205431573647.58519767
1076782.447085661573631.582586491076776.377129691573623.02946671
1076755.960005071573617.235417841076715.677570021573619.44267455
 1076703.74458841573618.614953281076683.18951024 1573618.0631391
1076664.979642341573619.99448873 1076652.8397304 1573623.3053738
1076643.458889361573628.685562051076633.112373511573638.89412435
1076628.697860081573644.688173231076620.972461571573653.51720009
1076621.800182841573659.725109611076617.385669411573670.89934673
1076606.625292921573681.245862581076602.210779491573686.35014374
1076599.727615691573686.764004371076596.140823521573684.83265474
1076590.760635281573684.280840561076582.345469051573686.90195791
1076576.689373721573685.246515381076570.20555712 1573683.4531193
1076558.617459361573674.762045981076552.133642761573670.07162546
1076544.684151351573667.174601021076542.200987541573659.72510961
1076535.993078031573651.723804011076531.164703971573644.82612678
1076525.232701541573645.102033871076519.990466841573637.51458891
1076510.195765171573631.444632941076503.849902111573630.89281876
1076487.847290931573633.100075481076483.708684591573634.61756447
1076473.500122281573642.342962971076471.844679741573648.13701185
1076471.292865561573654.344921361076463.567467061573659.72510961
1076451.01369449 1573668.96799711076444.391924341573676.83134915
1076436.666525841573682.62539803 1076432.52791951573686.76400437
1076431.562244681573690.074889441076425.354335171573694.62735642
1076418.318704391573691.040564261076411.834887791573692.28214616
1076405.213117641573700.283451751076400.798604211573704.56001164
1076389.624367091573706.21545417 1076381.62306151573709.80224634
 1076376.38082681573712.975177861076369.759056651573717.94150547
1076367.275892851573725.528950431076350.583513941573741.94542225
Rch Text X Y=1077145.8749407,1573878.0285061
Reverse River Text= 0 

Type RM Length L Ch R = 1 ,1347    ,42.5,43.5,44.9
XS GIS Cut Line=3
1077392.021373371573623.194046881077406.432647751573919.65454828
 1077445.54896391574185.23374746
Node Last Edited Time=Jan/02/2023 18:29:52
#Sta/Elev= 269 
       0   68.94     1.2   68.85     2.2   68.81     3.2   68.79     4.2   68.82
     6.3   68.84     8.3   68.95     9.3   68.94    12.3   68.83    14.1   68.81
    15.3   68.77    19.3   68.93    20.3   68.95    21.3   68.95    24.3   68.86
    25.3   68.86    27.3   68.94    31.3   69.02    33.3   69.11    35.3   69.15
    38.3   69.14    40.3   69.16    41.3   69.15    44.7   69.01    46.3   68.98
    49.3   69.04    52.3   69.07    53.3   69.11    54.3   69.09    56.3      69
    57.3   68.98    62.3   69.01    65.3   68.96    67.3   69.11    68.3   69.13
    70.3   69.01    71.4      69    76.3   69.01    79.3   69.07    81.3   69.04
    84.3   69.05    85.3   69.07    87.3   69.17    88.3   69.15    89.3   69.08
    90.4   69.05    91.4   69.08    97.4   69.09    99.4   69.16   100.4   69.17
   103.4   69.09   105.4   69.07   106.4    69.1   107.4   69.21   108.4   69.35
   109.4   69.38   110.4   69.34   112.4   69.19   118.4   69.12   123.4   69.07
   126.4   69.13   128.4   69.11   131.4   69.14   133.5    69.1   136.4   69.07
   138.4   69.17   141.4    69.2   145.4   69.29   147.4   69.23   150.4   69.22
   153.4   69.18   154.5   69.19   156.4   69.23   157.4   69.24   159.4   69.22
   162.8   69.28   165.4   69.26   168.4   69.39   169.4    69.4   172.4   69.34
   173.3   69.34   175.4   69.34   178.5   69.39   184.5   69.35   185.5   69.37
   189.5   69.39   191.7   69.37   194.5   69.42   195.5   69.35   196.5   69.23
   197.5   69.16   198.5   69.16   200.5   69.21   201.2   69.22   204.5   69.15
   206.5   69.14   208.5   69.15   211.5   69.19   214.5   69.12   216.5    69.1
   218.5   69.16   219.5   69.17   221.5   69.12   226.5   69.05   231.5   69.11
   235.5   69.05   236.5   69.05   241.3   69.18   245.5   69.25   249.5   69.29
   252.5   69.26   256.5   69.28   259.5   69.26   265.6   69.32   270.6   69.23
   272.3   69.21   275.6   69.21   278.6   69.27   279.6   69.26   280.7   69.21
   281.7   69.21   282.4   69.24   283.4   69.23   283.669.21834   284.6   69.16
   285.6   68.96   286.6   68.59   290.6   66.84   293.6   65.45   295.8   64.52
   296.6    64.2   297.6   63.94   298.6   63.86   302.7   63.88   303.7   63.98
   304.7   64.32   305.5   64.81   307.7   66.12   308.7   66.68   309.7   67.12
   310.7   67.36   311.7   67.49   314.8   67.82   315.8   67.92   316.8   67.95
   317.8   67.84   318.8   67.69   319.8   67.57   320.9   67.52   321.9   67.51
   322.9   67.52   323.7   67.58   324.9   67.64   326.9   67.59   327.9   67.61
     332   67.77   333.2   67.85     334   67.95     335   68.12     336    68.3
     337   68.52   337.3   68.58   337.9   68.75     339   69.01   340.1   69.15
   341.1   69.25   342.1   69.33   343.1   69.37   344.3   69.33   346.1   69.21
   347.1   69.21   349.2   69.39   350.2   69.37   351.4   69.29   352.2   69.26
   354.2   69.35   355.2   69.34   360.3   69.11   361.3    69.1   366.3   69.12
   367.5   69.12   370.4   69.06   373.4   69.09   375.4   69.05   377.5      69
   381.3   68.97   384.5   69.03   387.6   69.01   390.6   69.05   391.6   69.05
   394.6   69.01   397.7   69.04   400.7      69   403.7   69.03   405.8   68.98
   408.8   68.96   410.8   68.89   413.8   68.84   415.7   68.88   416.9   68.89
   418.9   68.87     421   68.83   422.7   68.85   425.4   68.96     426   68.98
     427   68.98     431   68.81     432    68.8   434.1   68.83   435.9    68.8
   440.1   68.79   442.1   68.88   443.2    68.9   444.2   68.88   445.6   68.81
   447.2   68.78   448.3   68.79   450.2   68.86   454.3   68.82   456.3   68.77
     458   68.79   460.6   68.88   463.4   68.88   465.4   68.94   466.4   68.95
   469.4   68.81   470.7   68.82   472.5   68.85   473.5   68.85   475.5   68.81
   478.5   68.83   481.6   68.72   484.4   68.67   486.1   68.69   487.9   68.74
   489.7   68.75   495.7   68.65   497.9   68.63   499.8    68.6   503.8   68.71
   504.6    68.7   506.4    68.6   507.8   68.55   511.9   68.55   515.9   68.44
   517.9   68.42     519   68.44     522   68.58   522.3   68.59   522.8   68.62
     524   68.64   527.1   68.57   529.3   68.56   532.3   68.59   534.1   68.64
   536.1   68.72     539   68.76   540.2   68.75   542.2   68.77   546.9   68.67
   550.3   68.65   552.3   68.66   554.3    68.7   558.4   68.76   561.4   68.76
   563.7   68.81   564.3   68.81   564.5   68.82   565.3   68.79
#Mann= 3 ,0,0
       0    .035       0   283.6     .03       0     337    .035       0
Bank Sta=283.6,337
XS Rating Curve= 0 ,0
XS HTab Starting El and Incr=64.01,0.27, 20 
XS HTab Horizontal Distribution= 5 , 5 , 5 
Exp/Cntr(USF)=0,0
Exp/Cntr=0.3,0.1

Type RM Length L Ch R = 1 ,1304    ,43.9,43.9,43.9
XS GIS Cut Line=4
1077351.30208199 1573621.1352934 1077361.59584941573901.12576695
1077365.713356361573934.065822661077398.653412071574176.99873353
Node Last Edited Time=Jan/02/2023 18:28:19
#Sta/Elev= 254 
       0   68.82     1.3   68.85     2.3   68.83     4.3   68.76     6.3   68.74
     8.3   68.77    13.3   68.78    15.3    68.8    19.3   68.81    20.4    68.8
    21.3    68.8    22.3   68.84    23.3   68.85    24.3   68.84    26.3   68.77
    27.3   68.75    28.3   68.76      30   68.72    31.3   68.71    34.3   68.78
    36.3   68.77    38.3   68.79    40.3   68.78    42.3   68.81    45.3   68.77
    47.3   68.79    49.3   68.77    50.3   68.78    51.3   68.83    52.3   68.84
    53.3   68.82    56.3   68.81    58.7   68.91    61.3   68.97    67.3   68.95
    69.6   68.96    72.2   68.93    74.4   68.84    78.4   68.84    79.4   68.84
    82.4   68.92    84.4   68.89    86.4   68.93    87.4   68.92    88.4   68.89
    89.4   68.88    91.4   68.98    92.4      69    95.4   68.94    97.4   68.97
    99.4   69.02   103.4   69.07   104.4   69.05   105.4      69   106.3   68.98
   109.4   68.98   111.4   68.96   114.4      69   117.4   68.95   120.4   68.96
   122.4   68.99   134.4   68.99   135.4      69   137.4   69.09   139.4   69.13
   140.4   69.11   144.4   68.95   146.4   68.93   148.4   68.98   153.4   68.95
   156.3   68.98   158.4   69.02   162.4   68.96   165.4   68.93   168.8   68.97
   172.4   69.06   175.4   69.07   177.4   69.04   181.4   69.04   182.5   69.07
   186.4    69.1   187.4   69.08   192.2    69.1   199.4   69.07   202.4   69.01
   210.5   68.95   212.5   68.92   214.4   68.94   218.5    68.9   220.5   68.82
   221.5   68.81   226.5   68.86   229.5   68.83   233.7   68.83   234.7   68.86
   236.6   68.96   237.6   68.94   239.5   68.82   242.4   68.79   244.5   68.73
   245.5   68.73   249.5   68.81   253.5   68.81   255.9   68.85   258.5   68.86
   260.5    68.9   264.5   68.88   268.5   68.96   270.4   68.97   272.5   68.95
   273.3   68.96   275.5   69.05   276.8   69.14   279.5   69.36   280.5    69.4
   282.5   69.36   283.5   69.35   286.3    69.4   288.6   69.46   289.6   69.45
   291.7   69.34   292.6   69.31   295.3   69.38   297.6   69.37   299.6   69.42
   300.1  69.405   300.6   69.39   301.7   69.25   302.7   69.03   303.7   68.69
   304.7   68.24   306.7    67.2   307.7    66.8   309.7   66.24   311.7    65.6
   313.4   65.17   314.5    64.9   316.8   64.36   317.8   64.17   318.8   64.06
   319.4   64.18   319.8   64.27   320.8   64.83   321.8   65.53   322.8   66.19
   323.8   66.64     325   66.92   326.9   67.27   327.9   67.44   328.9   67.55
   329.9   67.54     331   67.43   332.9   67.16   333.9   67.09   334.9   67.07
     336   67.13     337   67.24     338   67.38     339   67.55   340.2   67.82
     343   68.49   343.1  68.512     344   68.71     345    68.9   347.1    69.2
   348.1   69.31   349.1   69.34   350.1   69.32   353.1   69.23   355.1    69.2
   358.5   69.23   359.2   69.24   361.2   69.33   362.1   69.35     363   69.34
   365.2   69.23   368.2   69.17   371.3   69.06   372.3   69.04   374.5   69.02
   377.3   68.96   381.4   69.01   383.4   69.02   384.4   69.05   385.4   69.06
   388.4   68.97   390.9   68.95   393.9    68.9   397.5   68.91   399.5   68.96
   400.5   68.96   402.9   68.91   408.3   68.96   409.6   68.95   413.7   68.87
   414.7   68.89   416.7   68.96   417.7   68.94   420.7   68.82   422.5   68.79
   424.8   68.78   429.8   68.86   432.8    68.8   434.8   68.81   437.9   68.77
   439.9   68.78   442.9   68.86   443.9   68.87     447   68.77     448   68.78
   449.1   68.85     450   68.92     451   68.96     452   68.91     454   68.75
     455   68.72   459.1   68.66   465.1   68.64   470.2   68.65   472.2    68.7
     474   68.78   475.2   68.81   477.2   68.82   481.4   68.77   485.3   68.75
   488.3   68.71   489.3   68.69   491.4   68.61   492.4    68.6   497.4    68.6
   505.1   68.51   509.5   68.51   510.6   68.54   513.6   68.64     514   68.64
   517.6   68.56     520   68.55   522.6   68.51   526.5   68.51   528.7   68.48
   529.7   68.49   532.3   68.56   534.8   68.59   535.8   68.64   537.8   68.78
   538.8   68.84   539.8   68.83   544.8   68.56   549.6   68.58   551.5   68.55
   553.1   68.54   555.8   68.47     557   68.46   558.5   68.46
#Mann= 3 ,-1,0
       0    .035       0   300.1     .03       0   343.1    .035       0
Bank Sta=300.1,343.1
XS Rating Curve= 0 ,0
XS HTab Starting El and Incr=64.21,0.26, 20 
XS HTab Horizontal Distribution= 5 , 5 , 5 
Exp/Cntr(USF)=0,0
Exp/Cntr=0.3,0.1

Type RM Length L Ch R = 1 ,1260    ,53.7,53.7,53.7
XS GIS Cut Line=3
1077301.891998421573623.194046881077324.538286721573946.41834355
1077345.125821541574170.82247308
Node Last Edited Time=Jan/02/2023 18:28:19
#Sta/Elev= 266 
       0   68.91     1.4   68.85     4.2   68.87     5.3   68.81     6.1   68.79
    11.7   68.71    12.3    68.7    13.3   68.72    15.4   68.68    17.3   68.68
    19.3   68.73    22.3   68.66    24.3   68.62    27.3   68.68    28.6   68.67
    30.3   68.69    32.3   68.68    34.3   68.69    37.3   68.65    38.3   68.66
    40.3    68.7    42.6   68.77    45.4   68.82    46.4   68.83    48.4    68.8
    51.4   68.86    52.4   68.86    56.4   68.75    57.4   68.75    59.4   68.77
    61.4   68.77    62.3   68.75    63.4   68.71    66.4   68.73    68.4   68.69
    70.4   68.69    73.4    68.8    75.4   68.84    76.4   68.84    78.4    68.8
    80.4   68.86    81.4   68.87    83.4   68.83    84.5   68.84    85.5   68.87
    87.5      69    88.5   69.01    90.5   68.92    92.5   68.86    94.1   68.86
    95.5   68.88    97.5   68.85    99.5   68.85   105.5   68.87   106.7    68.9
   108.5    68.9   112.5   68.97   115.5   68.94   116.5   68.95   117.5   69.02
   118.5   69.06   119.5   69.07   121.5   68.95   122.5   68.95   124.5   69.04
   125.6   69.06   126.6   69.05   128.6   68.97   129.7   68.97   131.6   69.03
   132.6   69.03   133.6   68.99   134.6   68.92   135.6    68.9   142.6   68.87
   144.6   68.92   145.6   68.89   146.6    68.9   148.6   68.99   149.6   69.05
   150.6   69.08   151.6      69   152.6   68.91   153.6   68.85   154.6   68.83
   157.6   68.85   159.6    68.8   161.6   68.79   164.6   68.75   166.7   68.78
   167.7   68.78   169.7   68.72   171.7   68.74   178.7   68.74   179.7   68.76
   181.7   68.82   184.7   68.86   185.7   68.85   187.7   68.77   188.7   68.76
   189.7   68.77   191.7   68.73   192.7   68.75   194.7   68.85   195.7   68.86
   198.1   68.74   198.7   68.73   199.7   68.72   202.7   68.75   204.7   68.84
   205.7   68.86   207.8   68.84   209.8   68.77   210.8   68.75   213.4   68.76
   215.8    68.8   217.8    68.8   219.8   68.85     221   68.87     229   68.81
   232.8   68.82   239.8   68.89   242.8   68.82     244   68.82   246.8   68.92
   247.9   68.94   251.9   68.86   254.9   68.83   255.9   68.83   258.9   68.89
   261.8    68.9   266.9   68.88   268.9   68.92   271.2   68.88   274.9   68.88
   277.9   68.95   279.9   69.02   281.9   69.04   285.9   69.24   286.9   69.26
     289   69.25     291   69.33     292   69.34     295   69.19     297   69.17
     298   69.14   301.5  68.916     303   68.82     310    68.3   313.3    68.1
   314.3      68     315   67.89     317   67.53     318   67.42     319    67.4
     321   67.41     322   67.27     323   66.84     324   66.12     325   65.26
     326   64.51     327   63.98   328.1   63.78   329.1   63.76   335.1   63.79
   336.1   63.89   337.1   64.22   338.1   64.74   339.3   65.39   340.1   65.81
   341.1   66.28   342.2   66.67   343.1   66.97   344.1   67.35   346.1   68.16
   347.1   68.49   347.868.66499   348.1   68.74   349.1   68.94   350.1   69.12
     351   69.24   352.2   69.34   353.2   69.33   356.2   69.19   358.2   69.14
   360.2   69.15   363.2   69.25   364.2   69.22     365   69.16   366.2    69.1
   369.2   69.04   370.2   69.02   371.2   69.02   373.2   69.07   374.2   69.05
   375.3      69   376.3   68.96   378.3   68.94   383.3   68.96   385.3   69.05
   386.3   69.07   389.3   69.08   390.3   69.07   393.3   68.97   396.3   68.93
   399.4      69   403.4    68.9   405.4   68.84   406.4   68.83   411.4   68.84
   413.4   68.82   416.4   68.93   417.4   68.93   420.2   68.87   421.4   68.85
   423.5   68.88   428.5   68.86   431.5   68.77   432.5   68.76   433.5   68.78
   435.5   68.85   436.5   68.87   438.6   68.86   441.5   68.88   443.5   68.83
   450.9   68.74   452.6   68.74   455.6   68.81   457.6   68.79   459.8   68.79
   462.5   68.74   465.6   68.78   466.6   68.76   468.6    68.7   469.6   68.71
   471.7   68.79   473.7   68.84   480.7   68.83   484.6   68.77   489.7   68.86
   490.1   68.85   490.7   68.82   492.7   68.71   493.7   68.68   496.6   68.64
   499.8   68.65   504.8   68.61   511.8   68.66   515.9   68.61   517.7   68.55
   519.9    68.5   524.9   68.42   525.9   68.43   528.9   68.55   529.9   68.54
   532.9   68.41   535.9   68.38   537.9   68.41   538.9   68.46   539.8   68.52
   539.9   68.53   540.9   68.57   541.2   68.57   541.9   68.56     544   68.49
   549.4   68.36
#Mann= 3 ,-1,0
       0    .035       0   301.5     .03       0   347.8    .035       0
Bank Sta=301.5,347.8
XS Rating Curve= 0 ,0
XS HTab Starting El and Incr=63.91,0.27, 20 
XS HTab Horizontal Distribution= 5 , 5 , 5 
Exp/Cntr(USF)=0,0
Exp/Cntr=0.3,0.1

Type RM Length L Ch R = 1 ,1206    ,71.9,71.9,71.9
XS GIS Cut Line=3
1077246.305654411573633.487814291077275.128203161573934.06582266
1077254.540668341574152.29369174
Node Last Edited Time=Jan/02/2023 18:28:19
#Sta/Elev= 248 
       0   68.53       1   68.56       4   68.72     4.4   68.72       5   68.73
       7   68.67       9   68.59      11   68.64      13    68.6      15   68.73
    16.3   68.76      19   68.77      21   68.72    22.1   68.75    25.1   69.02
    26.1   69.05    28.1   68.96    29.1   68.94    31.1   68.96    33.1    68.9
    35.1   68.81    38.1   68.76    39.1   68.76    40.1    68.8    43.1   68.87
    48.4   68.81    49.2   68.81    51.2   68.86    53.2   68.81    54.2   68.81
    57.2   68.88    58.2   68.86    59.2   68.82    60.2    68.8    62.2   68.82
    63.2    68.8    65.2   68.78    66.3   68.79    68.5   68.87    69.3   68.88
    71.3   68.85    73.3   68.89    74.3   68.86    76.3   68.84    77.3   68.82
    78.3   68.82    79.3   68.86    82.3   68.91    83.3   68.84    84.3    68.8
    86.3   68.79    89.4   68.84    90.5   68.82    92.4   68.88    93.3   68.89
    96.4   68.85    98.4   68.96    98.8   68.96   101.3   68.93   103.4   68.85
   104.4   68.84   107.4   68.88   108.4   68.89   111.5   68.85   113.5    68.8
   116.2   68.85   119.5   68.81   121.7   68.84   122.5   68.83   125.4   68.75
   127.5   68.74   130.5    68.7   131.6    68.7   134.5   68.75   136.6   68.71
   139.6   68.74   143.7    68.7   146.6   68.66   150.6   68.75   157.5   68.79
   159.7   68.86   160.7   68.87   161.7   68.84   163.9   68.73   167.7   68.72
   171.7   68.66   174.7   68.66   177.8   68.59   185.8   68.62   189.8   68.68
   192.8   68.78     195   68.74     196   68.77   198.9    68.9   199.9   68.93
   202.9   68.81   203.9   68.84   205.9   68.96   206.9   68.96   208.9   68.84
   209.7   68.82   210.9   68.81   214.9   68.82   216.8   68.85     223   68.88
     226   68.88     228   68.82     232   68.87     234   68.96     235   68.98
     237   68.96     239   68.88     240   68.86   241.1   68.87   243.1   68.92
   244.1   68.93   247.3   68.91     250   68.88   251.1   68.88   252.1   68.89
   255.1   68.98   258.1   68.98   263.2      69   264.6   69.04   265.2   69.05
   267.2    69.2   269.2   69.39   270.2   69.44   271.2   69.43   273.2   69.34
   273.9    69.3   274.2   69.28   275.2   69.18   276.2   68.97   277.2    68.7
   278.2   68.43   279.2    68.2   281.2   67.79   283.2   67.41   284.2   67.24
   285.3    67.1   286.3   66.99   288.3    66.8   290.3   66.65   291.3   66.61
   292.3   66.62   296.3   66.81   297.3   66.87   298.3   66.98   299.3   67.12
   302.3   67.65   303.3   67.77   304.3   67.85   305.3   67.88   306.3   67.87
   307.4   67.83   308.4   67.75   309.4   67.62   312.3   67.06   313.4    66.9
   317.4   66.38   318.4   66.18   319.4    65.9   320.4   65.56   323.4    64.4
   324.3   64.09   325.4   63.84   326.4   63.77   330.5   63.78   331.5   63.81
   332.5   63.96   333.5   64.34   336.5    65.9   337.5    66.4   338.5   66.88
   340.5   67.79   340.6   67.83   341.5   68.19   342.5   68.51   343.5   68.72
   344.5   68.84   345.5   68.92   348.5   69.14   349.5   69.15   351.5   69.12
   356.6   69.27   357.6   69.27   359.6   69.21   360.6   69.21   363.8   69.27
   365.6   69.29   369.6   69.23   371.6   69.13   374.7   69.01   376.6   68.95
   377.7   68.94   381.7   68.98   385.7   68.97   388.7   69.02   391.7   68.97
     395   68.99   398.8   68.92   402.8   68.95   404.8   68.99     406      69
   406.9   68.98   409.8   68.87   411.8   68.87   414.8   68.82   417.8   68.86
   420.7    68.8   429.9    68.7   434.9   68.74   438.9   68.72   441.9   68.76
     443   68.74     445   68.62     446   68.59     447   68.58     449   68.59
     451   68.64     454   68.75     456   68.79     457   68.79     459   68.75
     461   68.73     462    68.7     464   68.59   467.1   68.55   468.1   68.55
   472.1   68.59   475.8   68.54   481.3   68.55   483.1   68.52   486.8   68.43
   490.2   68.38   493.1    68.4   496.2   68.49   500.2   68.41     502   68.39
   505.1   68.39   508.2   68.34   513.3   68.31   515.3   68.27   516.3   68.26
   518.3    68.3   520.3    68.3   521.2   68.31
#Mann= 3 ,-1,0
       0    .035       0   277.2     .03       0   340.6    .035       0
Bank Sta=277.2,340.6
XS Rating Curve= 0 ,0
XS HTab Starting El and Incr=63.92,0.28, 20 
XS HTab Horizontal Distribution= 5 , 5 , 5 
Exp/Cntr(USF)=0,0
Exp/Cntr=0.3,0.1

Type RM Length L Ch R = 1 ,1134    ,48.9,48.9,48.9
XS GIS Cut Line=3
1077194.836817361573635.54656778 1077213.36559871573913.47828784
1077180.425542991574152.29369174
Node Last Edited Time=Jan/02/2023 18:28:19
#Sta/Elev= 238 
       0   68.58      .9    68.6     1.9   68.59     3.9   68.52     5.8   68.53
     7.9   68.63     9.9   68.57    12.9   68.53    15.2   68.47    18.9   68.44
    19.9   68.44    21.9    68.5    23.9   68.51    25.9   68.55    28.4   68.55
      31   68.58    33.1   68.58    35.9   68.51      38   68.57      40   68.53
      44    68.6    46.8   68.62    48.1   68.65      53   68.68      55   68.63
      58   68.59      61   68.61    63.1    68.6      66   68.65      71   68.64
    72.5   68.67    73.1   68.67    74.1   68.62    75.8   68.61    77.1   68.61
    79.1   68.58      80   68.58    84.1   68.69    85.1   68.68    86.1   68.66
    87.6   68.67    88.1   68.69    90.1   68.79    91.1   68.82    95.1   68.79
    96.1   68.76    98.1   68.68    99.1   68.66    99.8   68.66   101.6   68.67
   107.1   68.84   108.1   68.84   110.2    68.8   113.9   68.88   115.1   68.86
   117.2    68.8   120.2   68.78   124.1   68.62   125.1   68.61   129.2   68.62
   133.2   68.57   135.2   68.62   137.2   68.64   138.2   68.67   143.2   68.63
   148.2   68.67   149.2   68.66   151.2   68.58   153.2   68.66   155.2   68.62
   161.2   68.68   164.3   68.66   168.2   68.66   171.3   68.69   173.3   68.72
   174.3   68.72   178.3   68.64   179.3   68.65   184.3   68.76   185.3   68.76
   186.3   68.73   187.3   68.68   190.3   68.63   194.3   68.65   195.3   68.69
   196.3    68.7   197.3   68.69   198.3   68.69   201.3   68.74   207.4   68.74
   208.4   68.75   211.4   68.88   212.4    68.9   213.5   68.88   215.4   68.83
   217.4   68.83   223.4    68.9   226.4   68.89   228.4   68.86   230.4   68.87
   233.2    68.8   234.4    68.8   240.4   68.85   241.6   68.85   242.6   68.86
   244.4   68.94   246.3   68.94   247.4   68.97   248.4   68.97   249.4   68.92
   250.4   68.89   253.5   68.95   256.5   68.91   257.5   68.92   258.5   68.95
   262.5   69.15   263.5   69.16   268.5   68.97   269.5   68.89   270.4  68.755
   270.5   68.74   271.5   68.51   273.4   68.04   278.5   66.68   279.5   66.37
   280.5   65.98   282.5   65.08   283.6   64.65   284.6   64.26   285.6   63.94
   286.6   63.75   287.6   63.69   291.6   63.69   292.9   63.72   293.6   63.77
   294.7   63.98   295.7   64.34   300.7   66.64   301.7   67.06   302.7   67.37
   303.7   67.53   304.8   67.58   305.8   67.58   306.8   67.56   308.7   67.48
   310.7   67.33   311.8   67.28   312.8   67.28   314.8   67.32   318.6   67.34
   320.9   67.38   322.7   67.44   323.9    67.5   324.9   67.59     326   67.71
     327   67.87     328   68.05     329   68.27     330   68.52   330.9   68.77
     332   69.02   332.6  69.152     333   69.24     334   69.35     335   69.38
     336   69.36   337.1   69.28   338.1   69.15   339.1   69.07   340.1   69.07
   341.1   69.12   342.1   69.15   347.2   69.19   348.2   69.17   350.2   69.09
   353.2      69   354.2      69   357.2   69.06   359.3   68.98   360.3   68.98
   362.3   69.06   363.3   69.06   364.3   69.04   366.5   68.95   369.4   68.87
   373.4   68.86   374.4   68.87   376.4   68.93   377.4   68.92   380.5   68.81
   382.5   68.77   385.5   68.67   389.5   68.62   392.6   68.67   393.6   68.67
   395.6   68.63   399.4   68.68   404.7   68.63   407.7   68.66   410.7   68.71
   413.8    68.7   417.8   68.74   422.9   68.75     426   68.73   427.9    68.7
   430.4   68.61   431.9   68.58     437   68.53     441   68.45   444.6   68.44
   448.1   68.38   449.1   68.38   450.1    68.4   452.1   68.46   453.1   68.47
   460.2   68.47   471.3   68.38   477.4   68.41   479.4   68.38   482.4   68.37
   484.3   68.33   485.4   68.32   486.5   68.32   488.5   68.34   489.5   68.31
   491.5   68.22   492.5    68.2   498.7   68.31   499.5   68.31   501.6   68.27
   502.3   68.27   506.6    68.3   507.7    68.3     512   68.21   513.7    68.2
   515.7   68.25   516.7   68.27   519.6   68.21
#Mann= 3 ,-1,0
       0    .035       0   270.4     .03       0   332.6    .035       0
Bank Sta=270.4,332.6
XS Rating Curve= 0 ,0
XS HTab Starting El and Incr=63.84,0.28, 20 
XS HTab Horizontal Distribution= 5 , 5 , 5 
Exp/Cntr(USF)=0,0
Exp/Cntr=0.3,0.1

Type RM Length L Ch R = 1 ,1085    ,37.7,37.7,37.7
XS GIS Cut Line=4
1077135.132966381573641.722828221077163.95551513 1573917.5957948
1077161.896761651573991.710920151077147.485487281574137.88241737
Node Last Edited Time=Jan/02/2023 18:28:19
#Sta/Elev= 236 
       0   68.38      .7   68.38     2.7   68.44     4.7   68.45     7.8   68.35
     8.8   68.34     9.8   68.39    12.8   68.46    13.4   68.46    14.8   68.42
    16.8   68.41    20.8   68.35    23.8   68.39    26.9   68.54    27.9   68.56
    29.9    68.5    31.9    68.5    33.9   68.46    35.9   68.48    37.9   68.44
    39.9   68.47    41.9   68.55      44   68.57      47   68.53      49   68.46
    49.8   68.45      52   68.51      55   68.51      59   68.55      61   68.49
    62.1    68.5    64.1   68.57    65.1   68.56    68.1   68.49    68.9   68.49
    71.1   68.54    75.3   68.54    76.2   68.56    78.1   68.68    79.1   68.71
    80.1    68.7    82.2   68.54    83.2    68.5    84.2   68.48    85.2   68.49
    87.2   68.58    90.2   68.66    91.2   68.62    92.2   68.53    93.2   68.49
    95.1   68.46    97.1   68.46    99.3   68.43   103.3    68.4   111.7   68.49
   114.3   68.57   115.3   68.56   117.4   68.49   118.4   68.47   120.4   68.47
   122.4   68.44   125.4   68.48   128.4   68.59   130.4   68.55   131.4   68.55
   133.4   68.59   137.5   68.58   140.5   68.61   144.5   68.59   148.5   68.62
   152.5    68.6   153.9   68.63   156.6   68.74   157.6   68.76   161.4   68.73
   164.6   68.68   165.6   68.69   167.6   68.79   168.6   68.81   170.6   68.69
   173.7   68.61   175.7   68.61   178.7   68.69   180.7    68.7   182.7   68.69
   185.4   68.69   188.2   68.65   189.7   68.64   193.8   68.68   196.8   68.68
   197.8   68.71   199.8   68.86   200.8   68.89   205.8   68.78   209.1   68.77
   211.8   68.85   219.9   68.98   222.9   69.15   223.9   69.19   226.9   69.16
     231   69.17     232   69.19     234    69.3     235   69.32     236   69.27
     238   69.08     240   68.98     241   68.89     243   68.61   243.2  68.579
     245    68.3     246   68.18   247.1   68.13   248.1   68.13   251.9    68.2
   255.1   68.21   256.1   68.23   258.1   68.35   259.1   68.34   260.1   68.21
   261.1   67.92   262.1   67.53   264.1   66.68   265.2   66.29   266.2      66
   267.2   65.78   268.2   65.48   269.2   65.07   271.2   64.19   272.2   63.85
   273.2   63.68   273.6   63.66   274.2   63.64   277.4   63.63   278.4   63.64
   279.2   63.65   279.4   63.68   280.2   63.78   281.2   64.07   282.2   64.57
   284.2   65.71   285.2   66.19   286.2   66.53   287.2   66.65   289.2   66.57
   290.2   66.66   291.2   66.89   292.2   67.15   293.2   67.35   294.2   67.47
   295.2   67.52   296.2   67.63   297.2   67.97   298.2   68.47   299.2   68.81
   300.2    68.9   301.268.91035   303.1   68.93   305.2   68.98   306.2   69.04
   309.2   69.24   312.2    69.4   313.2   69.42   314.2   69.38   317.2   69.13
   319.2    69.1   321.2   69.04   322.2   69.02   324.2   69.07   325.2   69.08
   326.2   69.05   329.2   68.94   330.2   68.92   336.2   68.96   337.2   68.94
   342.3   68.73   345.2   68.71   349.2   68.77   351.5   68.76   353.3   68.78