Geom Title=Geometria2
Program Version=6.31
Viewing Rectangle= 1076297.56408549 , 1077463.99151133 , 1573977.62504439 , 1573600.07400705 

River Reach=River1          ,Reach1          
Reach XY= 100 
1077410.972082891573923.389534081077390.890278981573927.63760799
1077371.194663611573935.361378721077339.913392141573946.17465775
1077312.880194571573958.146502381077283.52986579 1573960.4636336
1077266.151381641573959.305067991077244.911012121573946.94703482
1077230.235847731573932.658058961077209.381666751573922.61715701
1077183.89322333 1573917.21051751077163.42523088 1573917.2105175
1077146.046746731573916.051951891077136.778221851573909.48674676
1077121.716868921573899.059656271077105.110761851573884.77068042
1077085.415146481573873.571212851077067.264285251573868.16457334
 1077052.9753094 1573867.7783848 1077034.05207111573865.84744212
1077018.604529631573863.144122361077003.156988171573853.10322041
1076993.502274751573843.062318461076985.392315481573831.09047382
1076979.599487431573819.891006261076973.806659381573809.46391577
1076966.855265721573800.581579421076955.655798161573790.15448893
1076941.093662071573780.296507681076931.436913941573776.43380843
1076905.501647541573776.433808431076885.912244191573776.43380843
  1076869.9096331573773.398830451076853.079300551573770.91566664
1076840.111667351573766.225246121076826.316312871573761.25891851
1076816.383657661573754.085334191076808.658259151573743.60086479
1076799.82923229 1573730.3573245 1076797.07016141573721.80420473
1076792.655647971573710.492014061076791.00020543 1573696.4207525
1076789.62066998 1573680.69404841076793.759276321573673.24455699
 1076794.31109051573662.208273411076791.000205431573647.58519767
1076782.447085661573631.582586491076776.377129691573623.02946671
1076755.960005071573617.235417841076715.677570021573619.44267455
 1076703.74458841573618.614953281076683.18951024 1573618.0631391
1076664.979642341573619.99448873 1076652.8397304 1573623.3053738
1076643.458889361573628.685562051076633.112373511573638.89412435
1076628.697860081573644.688173231076620.972461571573653.51720009
1076621.800182841573659.725109611076617.385669411573670.89934673
1076606.625292921573681.245862581076602.210779491573686.35014374
1076599.727615691573686.764004371076596.140823521573684.83265474
1076590.760635281573684.280840561076582.345469051573686.90195791
1076576.689373721573685.246515381076570.20555712 1573683.4531193
1076558.617459361573674.762045981076552.133642761573670.07162546
1076544.684151351573667.174601021076542.200987541573659.72510961
1076535.993078031573651.723804011076531.164703971573644.82612678
1076525.232701541573645.102033871076519.990466841573637.51458891
1076510.195765171573631.444632941076503.849902111573630.89281876
1076487.847290931573633.100075481076483.708684591573634.61756447
1076473.500122281573642.342962971076471.844679741573648.13701185
1076471.292865561573654.344921361076463.567467061573659.72510961
1076451.01369449 1573668.96799711076444.391924341573676.83134915
1076436.666525841573682.62539803 1076432.52791951573686.76400437
1076431.562244681573690.074889441076425.354335171573694.62735642
1076418.318704391573691.040564261076411.834887791573692.28214616
1076405.213117641573700.283451751076400.798604211573704.56001164
1076389.624367091573706.21545417 1076381.62306151573709.80224634
 1076376.38082681573712.975177861076369.759056651573717.94150547
1076367.275892851573725.528950431076350.583513941573741.94542225
Rch Text X Y=,
Reverse River Text= 0 

LCMann Time=Dec/30/1899 00:00:00
LCMann Region Time=Dec/30/1899 00:00:00
LCMann Table=0
Chan Stop Cuts=-1 



Use User Specified Reach Order=0
GIS Ratio Cuts To Invert=-1
GIS Limit At Bridges=0
Composite Channel Slope=5
