Geom Title=Geometria2D
Program Version=6.31
Viewing Rectangle= 1074433.13766062 , 1076822.94986215 , 1574212.29998436 , 1572860.1964344 

Storage Area=Perimeter 1     ,,
Storage Area Surface Line= 15 
1076228.625816251573254.17079014                
1075473.928615111573125.27448599                
 1074930.32246281572951.54468473                
1074597.807359331572921.65568667                
1074560.446111751573065.49648986                
1074545.501612721573199.99698115                
1074661.321480221573355.04615861                
1074541.765487961573620.31101644                
1074610.883795981573674.48482543                
1075070.427141231573844.47850192                
1075378.657433781573930.40937136                
1076157.639445851574150.84073209                
1076714.322034811573958.43030705                
1076632.127290131573312.08072389                
1076228.625816251573254.17079014                
Storage Area Type= 1 
Storage Area Area=
Storage Area Min Elev=
Storage Area Is2D=-1
Storage Area Point Generation Data=,,5,5
Storage Area 2D Points= 17131 
1076156.765487961574145.840732091076121.765487961574135.84073209
1076131.765487961574135.840732091076141.765487961574135.84073209
1076151.765487961574135.840732091076161.765487961574135.84073209
1076171.765487961574135.840732091076181.765487961574135.84073209
1076191.765487961574135.840732091076086.765487961574125.84073209
1076096.765487961574125.840732091076106.765487961574125.84073209
1076116.765487961574125.840732091076126.765487961574125.84073209
1076136.765487961574125.840732091076146.765487961574125.84073209
1076156.765487961574125.840732091076166.765487961574125.84073209
1076176.765487961574125.840732091076186.765487961574125.84073209
1076196.765487961574125.840732091076206.765487961574125.84073209
1076216.765487961574125.840732091076051.765487961574115.84073209
1076061.765487961574115.840732091076071.765487961574115.84073209
1076081.765487961574115.840732091076091.765487961574115.84073209
1076101.765487961574115.840732091076111.765487961574115.84073209
1076121.765487961574115.840732091076131.765487961574115.84073209
1076141.765487961574115.840732091076151.765487961574115.84073209
1076161.765487961574115.840732091076171.765487961574115.84073209
1076181.765487961574115.840732091076191.765487961574115.84073209
1076201.765487961574115.840732091076211.765487961574115.84073209
1076221.765487961574115.840732091076231.765487961574115.84073209
1076241.765487961574115.840732091076016.765487961574105.84073209
1076026.765487961574105.840732091076036.765487961574105.84073209
1076046.765487961574105.840732091076056.765487961574105.84073209
1076066.765487961574105.840732091076076.765487961574105.84073209
1076086.765487961574105.840732091076096.765487961574105.84073209
1076106.765487961574105.840732091076116.765487961574105.84073209
1076126.765487961574105.840732091076136.765487961574105.84073209
1076146.765487961574105.840732091076156.765487961574105.84073209
1076166.765487961574105.840732091076176.765487961574105.84073209
1076186.765487961574105.840732091076196.765487961574105.84073209
1076206.765487961574105.840732091076216.765487961574105.84073209
1076226.765487961574105.840732091076236.765487961574105.84073209
1076246.765487961574105.840732091076256.765487961574105.84073209
1076266.765487961574105.840732091076276.765487961574105.84073209
1075981.765487961574095.840732091075991.765487961574095.84073209
1076001.765487961574095.840732091076011.765487961574095.84073209
1076021.765487961574095.840732091076031.765487961574095.84073209
1076041.765487961574095.840732091076051.765487961574095.84073209
1076061.765487961574095.840732091076071.765487961574095.84073209
1076081.765487961574095.840732091076091.765487961574095.84073209
1076101.765487961574095.840732091076111.765487961574095.84073209
1076121.765487961574095.840732091076131.765487961574095.84073209
1076141.765487961574095.840732091076151.765487961574095.84073209
1076161.765487961574095.840732091076171.765487961574095.84073209
1076181.765487961574095.840732091076191.765487961574095.84073209
1076201.765487961574095.840732091076211.765487961574095.84073209
1076221.765487961574095.840732091076231.765487961574095.84073209
1076241.765487961574095.840732091076251.765487961574095.84073209
1076261.765487961574095.840732091076271.765487961574095.84073209
1076281.765487961574095.840732091076291.765487961574095.84073209
1076301.765487961574095.840732091075946.765487961574085.84073209
1075956.765487961574085.840732091075966.765487961574085.84073209
1075976.765487961574085.840732091075986.765487961574085.84073209
1075996.765487961574085.840732091076006.765487961574085.84073209
1076016.765487961574085.840732091076026.765487961574085.84073209
1076036.765487961574085.840732091076046.765487961574085.84073209
1076056.765487961574085.840732091076066.765487961574085.84073209
1076076.765487961574085.840732091076086.765487961574085.84073209
1076096.765487961574085.840732091076106.765487961574085.84073209
1076116.765487961574085.840732091076126.765487961574085.84073209
1076136.765487961574085.840732091076146.765487961574085.84073209
1076156.765487961574085.840732091076166.765487961574085.84073209
1076176.765487961574085.840732091076186.765487961574085.84073209
1076196.765487961574085.840732091076206.765487961574085.84073209
1076216.765487961574085.840732091076226.765487961574085.84073209
1076236.765487961574085.840732091076246.765487961574085.84073209
1076256.765487961574085.840732091076266.765487961574085.84073209
1076276.765487961574085.840732091076286.765487961574085.84073209
1076296.765487961574085.840732091076306.765487961574085.84073209
1076316.765487961574085.840732091076326.765487961574085.84073209
1076336.765487961574085.840732091075911.765487961574075.84073209
1075921.765487961574075.840732091075931.765487961574075.84073209
1075941.765487961574075.840732091075951.765487961574075.84073209
1075961.765487961574075.840732091075971.765487961574075.84073209
1075981.765487961574075.840732091075991.765487961574075.84073209
1076001.765487961574075.840732091076011.765487961574075.84073209
1076021.765487961574075.840732091076031.765487961574075.84073209
1076041.765487961574075.840732091076051.765487961574075.84073209
1076061.765487961574075.840732091076071.765487961574075.84073209
1076081.765487961574075.840732091076091.765487961574075.84073209
1076101.765487961574075.840732091076111.765487961574075.84073209
1076121.765487961574075.840732091076131.765487961574075.84073209
1076141.765487961574075.840732091076151.765487961574075.84073209
1076161.765487961574075.840732091076171.765487961574075.84073209
1076181.765487961574075.840732091076191.765487961574075.84073209
1076201.765487961574075.840732091076211.765487961574075.84073209
1076221.765487961574075.840732091076231.765487961574075.84073209
1076241.765487961574075.840732091076251.765487961574075.84073209
1076261.765487961574075.840732091076271.765487961574075.84073209
1076281.765487961574075.840732091076291.765487961574075.84073209
1076301.765487961574075.840732091076311.765487961574075.84073209
1076321.765487961574075.840732091076331.765487961574075.84073209
1076341.765487961574075.840732091076351.765487961574075.84073209
1076361.765487961574075.840732091075866.765487961574065.84073209
1075876.765487961574065.840732091075886.765487961574065.84073209
1075896.765487961574065.840732091075906.765487961574065.84073209
1075916.765487961574065.840732091075926.765487961574065.84073209
1075936.765487961574065.840732091075946.765487961574065.84073209
1075956.765487961574065.840732091075966.765487961574065.84073209
1075976.765487961574065.840732091075986.765487961574065.84073209
1075996.765487961574065.840732091076006.765487961574065.84073209
1076016.765487961574065.840732091076026.765487961574065.84073209
1076036.765487961574065.840732091076046.765487961574065.84073209
1076056.765487961574065.840732091076066.765487961574065.84073209
1076076.765487961574065.840732091076086.765487961574065.84073209
1076096.765487961574065.840732091076106.765487961574065.84073209
1076116.765487961574065.840732091076126.765487961574065.84073209
1076136.765487961574065.840732091076146.765487961574065.84073209
1076156.765487961574065.840732091076166.765487961574065.84073209
1076176.765487961574065.840732091076186.765487961574065.84073209
1076196.765487961574065.840732091076206.765487961574065.84073209
1076216.765487961574065.840732091076226.765487961574065.84073209
1076236.765487961574065.840732091076246.765487961574065.84073209
1076256.765487961574065.840732091076266.765487961574065.84073209
1076276.765487961574065.840732091076286.765487961574065.84073209
1076296.765487961574065.840732091076306.765487961574065.84073209
1076316.765487961574065.840732091076326.765487961574065.84073209
1076336.765487961574065.840732091076346.765487961574065.84073209
1076356.765487961574065.840732091076366.765487961574065.84073209
1076376.765487961574065.840732091076386.765487961574065.84073209
1075831.765487961574055.840732091075841.765487961574055.84073209
1075851.765487961574055.840732091075861.765487961574055.84073209
1075871.765487961574055.840732091075881.765487961574055.84073209
1075891.765487961574055.840732091075901.765487961574055.84073209
1075911.765487961574055.840732091075921.765487961574055.84073209
1075931.765487961574055.840732091075941.765487961574055.84073209
1075951.765487961574055.840732091075961.765487961574055.84073209
1075971.765487961574055.840732091075981.765487961574055.84073209
1075991.765487961574055.840732091076001.765487961574055.84073209
1076011.765487961574055.840732091076021.765487961574055.84073209
1076031.765487961574055.840732091076041.765487961574055.84073209
1076051.765487961574055.840732091076061.765487961574055.84073209
1076071.765487961574055.840732091076081.765487961574055.84073209
1076091.765487961574055.840732091076101.765487961574055.84073209
1076111.765487961574055.840732091076121.765487961574055.84073209
1076131.765487961574055.840732091076141.765487961574055.84073209
1076151.765487961574055.840732091076161.765487961574055.84073209
1076171.765487961574055.840732091076181.765487961574055.84073209
1076191.765487961574055.840732091076201.765487961574055.84073209
1076211.765487961574055.840732091076221.765487961574055.84073209
1076231.765487961574055.840732091076241.765487961574055.84073209
1076251.765487961574055.840732091076261.765487961574055.84073209
1076271.765487961574055.840732091076281.765487961574055.84073209
1076291.765487961574055.840732091076301.765487961574055.84073209
1076311.765487961574055.840732091076321.765487961574055.84073209
1076331.765487961574055.840732091076341.765487961574055.84073209
1076351.765487961574055.840732091076361.765487961574055.84073209
1076371.765487961574055.840732091076381.765487961574055.84073209
1076391.765487961574055.840732091076401.765487961574055.84073209
1076411.765487961574055.840732091076421.765487961574055.84073209
1075796.765487961574045.840732091075806.765487961574045.84073209
1075816.765487961574045.840732091075826.765487961574045.84073209
1075836.765487961574045.840732091075846.765487961574045.84073209
1075856.765487961574045.840732091075866.765487961574045.84073209
1075876.765487961574045.840732091075886.765487961574045.84073209
1075896.765487961574045.840732091075906.765487961574045.84073209
1075916.765487961574045.840732091075926.765487961574045.84073209
1075936.765487961574045.840732091075946.765487961574045.84073209
1075956.765487961574045.840732091075966.765487961574045.84073209
1075976.765487961574045.840732091075986.765487961574045.84073209
1075996.765487961574045.840732091076006.765487961574045.84073209
1076016.765487961574045.840732091076026.765487961574045.84073209
1076036.765487961574045.840732091076046.765487961574045.84073209
1076056.765487961574045.840732091076066.765487961574045.84073209
1076076.765487961574045.840732091076086.765487961574045.84073209
1076096.765487961574045.840732091076106.765487961574045.84073209
1076116.765487961574045.840732091076126.765487961574045.84073209
1076136.765487961574045.840732091076146.765487961574045.84073209
1076156.765487961574045.840732091076166.765487961574045.84073209
1076176.765487961574045.840732091076186.765487961574045.84073209
1076196.765487961574045.840732091076206.765487961574045.84073209
1076216.765487961574045.840732091076226.765487961574045.84073209
1076236.765487961574045.840732091076246.765487961574045.84073209
1076256.765487961574045.840732091076266.765487961574045.84073209
1076276.765487961574045.840732091076286.765487961574045.84073209
1076296.765487961574045.840732091076306.765487961574045.84073209
1076316.765487961574045.840732091076326.765487961574045.84073209
1076336.765487961574045.840732091076346.765487961574045.84073209
1076356.765487961574045.840732091076366.765487961574045.84073209
1076376.765487961574045.840732091076386.765487961574045.84073209
1076396.765487961574045.840732091076406.765487961574045.84073209
1076416.765487961574045.840732091076426.765487961574045.84073209
1076436.765487961574045.840732091076446.765487961574045.84073209
1075761.765487961574035.840732091075771.765487961574035.84073209
1075781.765487961574035.840732091075791.765487961574035.84073209
1075801.765487961574035.840732091075811.765487961574035.84073209
1075821.765487961574035.840732091075831.765487961574035.84073209
1075841.765487961574035.840732091075851.765487961574035.84073209
1075861.765487961574035.840732091075871.765487961574035.84073209
1075881.765487961574035.840732091075891.765487961574035.84073209
1075901.765487961574035.840732091075911.765487961574035.84073209
1075921.765487961574035.840732091075931.765487961574035.84073209
1075941.765487961574035.840732091075951.765487961574035.84073209
1075961.765487961574035.840732091075971.765487961574035.84073209
1075981.765487961574035.840732091075991.765487961574035.84073209
1076001.765487961574035.840732091076011.765487961574035.84073209
1076021.765487961574035.840732091076031.765487961574035.84073209
1076041.765487961574035.840732091076051.765487961574035.84073209
1076061.765487961574035.840732091076071.765487961574035.84073209
1076081.765487961574035.840732091076091.765487961574035.84073209
1076101.765487961574035.840732091076111.765487961574035.84073209
1076121.765487961574035.840732091076131.765487961574035.84073209
1076141.765487961574035.840732091076151.765487961574035.84073209
1076161.765487961574035.840732091076171.765487961574035.84073209
1076181.765487961574035.840732091076191.765487961574035.84073209
1076201.765487961574035.840732091076211.765487961574035.84073209
1076221.765487961574035.840732091076231.765487961574035.84073209
1076241.765487961574035.840732091076251.765487961574035.84073209
1076261.765487961574035.840732091076271.765487961574035.84073209
1076281.765487961574035.840732091076291.765487961574035.84073209
1076301.765487961574035.840732091076311.765487961574035.84073209
1076321.765487961574035.840732091076331.765487961574035.84073209
1076341.765487961574035.840732091076351.765487961574035.84073209
1076361.765487961574035.840732091076371.765487961574035.84073209
1076381.765487961574035.840732091076391.765487961574035.84073209
1076401.765487961574035.840732091076411.765487961574035.84073209
1076421.765487961574035.840732091076431.765487961574035.84073209
1076441.765487961574035.840732091076451.765487961574035.84073209
1076461.765487961574035.840732091076471.765487961574035.84073209
1076481.765487961574035.840732091075726.765487961574025.84073209
1075736.765487961574025.840732091075746.765487961574025.84073209
1075756.765487961574025.840732091075766.765487961574025.84073209
1075776.765487961574025.840732091075786.765487961574025.84073209
1075796.765487961574025.840732091075806.765487961574025.84073209
1075816.765487961574025.840732091075826.765487961574025.84073209
1075836.765487961574025.840732091075846.765487961574025.84073209
1075856.765487961574025.840732091075866.765487961574025.84073209
1075876.765487961574025.840732091075886.765487961574025.84073209
1075896.765487961574025.840732091075906.765487961574025.84073209
1075916.765487961574025.840732091075926.765487961574025.84073209
1075936.765487961574025.840732091075946.765487961574025.84073209
1075956.765487961574025.840732091075966.765487961574025.84073209
1075976.765487961574025.840732091075986.765487961574025.84073209
1075996.765487961574025.840732091076006.765487961574025.84073209
1076016.765487961574025.840732091076026.765487961574025.84073209
1076036.765487961574025.840732091076046.765487961574025.84073209
1076056.765487961574025.840732091076066.765487961574025.84073209
1076076.765487961574025.840732091076086.765487961574025.84073209
1076096.765487961574025.840732091076106.765487961574025.84073209
1076116.765487961574025.840732091076126.765487961574025.84073209
1076136.765487961574025.840732091076146.765487961574025.84073209
1076156.765487961574025.840732091076166.765487961574025.84073209
1076176.765487961574025.840732091076186.765487961574025.84073209
1076196.765487961574025.840732091076206.765487961574025.84073209
1076216.765487961574025.840732091076226.765487961574025.84073209
1076236.765487961574025.840732091076246.765487961574025.84073209
1076256.765487961574025.840732091076266.765487961574025.84073209
1076276.765487961574025.840732091076286.765487961574025.84073209
1076296.765487961574025.840732091076306.765487961574025.84073209
1076316.765487961574025.840732091076326.765487961574025.84073209
1076336.765487961574025.840732091076346.765487961574025.84073209
1076356.765487961574025.840732091076366.765487961574025.84073209
1076376.765487961574025.840732091076386.765487961574025.84073209
1076396.765487961574025.840732091076406.765487961574025.84073209
1076416.765487961574025.840732091076426.765487961574025.84073209
1076436.765487961574025.840732091076446.765487961574025.84073209
1076456.765487961574025.840732091076466.765487961574025.84073209
1076476.765487961574025.840732091076486.765487961574025.84073209
1076496.765487961574025.840732091076506.765487961574025.84073209
1075691.765487961574015.840732091075701.765487961574015.84073209
1075711.765487961574015.840732091075721.765487961574015.84073209
1075731.765487961574015.840732091075741.765487961574015.84073209
1075751.765487961574015.840732091075761.765487961574015.84073209
1075771.765487961574015.840732091075781.765487961574015.84073209
1075791.765487961574015.840732091075801.765487961574015.84073209
1075811.765487961574015.840732091075821.765487961574015.84073209
1075831.765487961574015.840732091075841.765487961574015.84073209
1075851.765487961574015.840732091075861.765487961574015.84073209
1075871.765487961574015.840732091075881.765487961574015.84073209
1075891.765487961574015.840732091075901.765487961574015.84073209
1075911.765487961574015.840732091075921.765487961574015.84073209
1075931.765487961574015.840732091075941.765487961574015.84073209
1075951.765487961574015.840732091075961.765487961574015.84073209
1075971.765487961574015.840732091075981.765487961574015.84073209
1075991.765487961574015.840732091076001.765487961574015.84073209
1076011.765487961574015.840732091076021.765487961574015.84073209
1076031.765487961574015.840732091076041.765487961574015.84073209
1076051.765487961574015.840732091076061.765487961574015.84073209
1076071.765487961574015.840732091076081.765487961574015.84073209
1076091.765487961574015.840732091076101.765487961574015.84073209
1076111.765487961574015.840732091076121.765487961574015.84073209
1076131.765487961574015.840732091076141.765487961574015.84073209
1076151.765487961574015.840732091076161.765487961574015.84073209
1076171.765487961574015.840732091076181.765487961574015.84073209
1076191.765487961574015.840732091076201.765487961574015.84073209
1076211.765487961574015.840732091076221.765487961574015.84073209
1076231.765487961574015.840732091076241.765487961574015.84073209
1076251.765487961574015.840732091076261.765487961574015.84073209
1076271.765487961574015.840732091076281.765487961574015.84073209
1076291.765487961574015.840732091076301.765487961574015.84073209
1076311.765487961574015.840732091076321.765487961574015.84073209
1076331.765487961574015.840732091076341.765487961574015.84073209
1076351.765487961574015.840732091076361.765487961574015.84073209
1076371.765487961574015.840732091076381.765487961574015.84073209
1076391.765487961574015.840732091076401.765487961574015.84073209
1076411.765487961574015.840732091076421.765487961574015.84073209
1076431.765487961574015.840732091076441.765487961574015.84073209
1076451.765487961574015.840732091076461.765487961574015.84073209
1076471.765487961574015.840732091076481.765487961574015.84073209
1076491.765487961574015.840732091076501.765487961574015.84073209
1076511.765487961574015.840732091076521.765487961574015.84073209
1076531.765487961574015.840732091075656.765487961574005.84073209
1075666.765487961574005.840732091075676.765487961574005.84073209
1075686.765487961574005.840732091075696.765487961574005.84073209
1075706.765487961574005.840732091075716.765487961574005.84073209
1075726.765487961574005.840732091075736.765487961574005.84073209
1075746.765487961574005.840732091075756.765487961574005.84073209
1075766.765487961574005.840732091075776.765487961574005.84073209
1075786.765487961574005.840732091075796.765487961574005.84073209
1075806.765487961574005.840732091075816.765487961574005.84073209
1075826.765487961574005.840732091075836.765487961574005.84073209
1075846.765487961574005.840732091075856.765487961574005.84073209
1075866.765487961574005.840732091075876.765487961574005.84073209
1075886.765487961574005.840732091075896.765487961574005.84073209
1075906.765487961574005.840732091075916.765487961574005.84073209
1075926.765487961574005.840732091075936.765487961574005.84073209
1075946.765487961574005.840732091075956.765487961574005.84073209
1075966.765487961574005.840732091075976.765487961574005.84073209
1075986.765487961574005.840732091075996.765487961574005.84073209
1076006.765487961574005.840732091076016.765487961574005.84073209
1076026.765487961574005.840732091076036.765487961574005.84073209
1076046.765487961574005.840732091076056.765487961574005.84073209
1076066.765487961574005.840732091076076.765487961574005.84073209
1076086.765487961574005.840732091076096.765487961574005.84073209
1076106.765487961574005.840732091076116.765487961574005.84073209
1076126.765487961574005.840732091076136.765487961574005.84073209
1076146.765487961574005.840732091076156.765487961574005.84073209
1076166.765487961574005.840732091076176.765487961574005.84073209
1076186.765487961574005.840732091076196.765487961574005.84073209
1076206.765487961574005.840732091076216.765487961574005.84073209
1076226.765487961574005.840732091076236.765487961574005.84073209
1076246.765487961574005.840732091076256.765487961574005.84073209
1076266.765487961574005.840732091076276.765487961574005.84073209
1076286.765487961574005.840732091076296.765487961574005.84073209
1076306.765487961574005.840732091076316.765487961574005.84073209
1076326.765487961574005.840732091076336.765487961574005.84073209
1076346.765487961574005.840732091076356.765487961574005.84073209
1076366.765487961574005.840732091076376.765487961574005.84073209
1076386.765487961574005.840732091076396.765487961574005.84073209
1076406.765487961574005.840732091076416.765487961574005.84073209
1076426.765487961574005.840732091076436.765487961574005.84073209
1076446.765487961574005.840732091076456.765487961574005.84073209
1076466.765487961574005.840732091076476.765487961574005.84073209
1076486.765487961574005.840732091076496.765487961574005.84073209
1076506.765487961574005.840732091076516.765487961574005.84073209
1076526.765487961574005.840732091076536.765487961574005.84073209
1076546.765487961574005.840732091076556.765487961574005.84073209
1076566.765487961574005.840732091075621.765487961573995.84073209
1075631.765487961573995.840732091075641.765487961573995.84073209
1075651.765487961573995.840732091075661.765487961573995.84073209
1075671.765487961573995.840732091075681.765487961573995.84073209
1075691.765487961573995.840732091075701.765487961573995.84073209
1075711.765487961573995.840732091075721.765487961573995.84073209
1075731.765487961573995.840732091075741.765487961573995.84073209
1075751.765487961573995.840732091075761.765487961573995.84073209
1075771.765487961573995.840732091075781.765487961573995.84073209
1075791.765487961573995.840732091075801.765487961573995.84073209
1075811.765487961573995.840732091075821.765487961573995.84073209
1075831.765487961573995.840732091075841.765487961573995.84073209
1075851.765487961573995.840732091075861.765487961573995.84073209
1075871.765487961573995.840732091075881.765487961573995.84073209
1075891.765487961573995.840732091075901.765487961573995.84073209
1075911.765487961573995.840732091075921.765487961573995.84073209
1075931.765487961573995.840732091075941.765487961573995.84073209
1075951.765487961573995.840732091075961.765487961573995.84073209
1075971.765487961573995.840732091075981.765487961573995.84073209
1075991.765487961573995.840732091076001.765487961573995.84073209
1076011.765487961573995.840732091076021.765487961573995.84073209
1076031.765487961573995.840732091076041.765487961573995.84073209
1076051.765487961573995.840732091076061.765487961573995.84073209
1076071.765487961573995.840732091076081.765487961573995.84073209
1076091.765487961573995.840732091076101.765487961573995.84073209
1076111.765487961573995.840732091076121.765487961573995.84073209
1076131.765487961573995.840732091076141.765487961573995.84073209
1076151.765487961573995.840732091076161.765487961573995.84073209
1076171.765487961573995.840732091076181.765487961573995.84073209
1076191.765487961573995.840732091076201.765487961573995.84073209
1076211.765487961573995.840732091076221.765487961573995.84073209
1076231.765487961573995.840732091076241.765487961573995.84073209
1076251.765487961573995.840732091076261.765487961573995.84073209
1076271.765487961573995.840732091076281.765487961573995.84073209
1076291.765487961573995.840732091076301.765487961573995.84073209
1076311.765487961573995.840732091076321.765487961573995.84073209
1076331.765487961573995.840732091076341.765487961573995.84073209
1076351.765487961573995.840732091076361.765487961573995.84073209
1076371.765487961573995.840732091076381.765487961573995.84073209
1076391.765487961573995.840732091076401.765487961573995.84073209
1076411.765487961573995.840732091076421.765487961573995.84073209
1076431.765487961573995.840732091076441.765487961573995.84073209
1076451.765487961573995.840732091076461.765487961573995.84073209
1076471.765487961573995.840732091076481.765487961573995.84073209
1076491.765487961573995.840732091076501.765487961573995.84073209
1076511.765487961573995.840732091076521.765487961573995.84073209
1076531.765487961573995.840732091076541.765487961573995.84073209
1076551.765487961573995.840732091076561.765487961573995.84073209
1076571.765487961573995.840732091076581.765487961573995.84073209
1076591.765487961573995.840732091075586.765487961573985.84073209
1075596.765487961573985.840732091075606.765487961573985.84073209
1075616.765487961573985.840732091075626.765487961573985.84073209
1075636.765487961573985.840732091075646.765487961573985.84073209
1075656.765487961573985.840732091075666.765487961573985.84073209
1075676.765487961573985.840732091075686.765487961573985.84073209
1075696.765487961573985.840732091075706.765487961573985.84073209
1075716.765487961573985.840732091075726.765487961573985.84073209
1075736.765487961573985.840732091075746.765487961573985.84073209
1075756.765487961573985.840732091075766.765487961573985.84073209
1075776.765487961573985.840732091075786.765487961573985.84073209
1075796.765487961573985.840732091075806.765487961573985.84073209
1075816.765487961573985.840732091075826.765487961573985.84073209
1075836.765487961573985.840732091075846.765487961573985.84073209
1075856.765487961573985.840732091075866.765487961573985.84073209
1075876.765487961573985.840732091075886.765487961573985.84073209
1075896.765487961573985.840732091075906.765487961573985.84073209
1075916.765487961573985.840732091075926.765487961573985.84073209
1075936.765487961573985.840732091075946.765487961573985.84073209
1075956.765487961573985.840732091075966.765487961573985.84073209
1075976.765487961573985.840732091075986.765487961573985.84073209
1075996.765487961573985.840732091076006.765487961573985.84073209
1076016.765487961573985.840732091076026.765487961573985.84073209
1076036.765487961573985.840732091076046.765487961573985.84073209
1076056.765487961573985.840732091076066.765487961573985.84073209
1076076.765487961573985.840732091076086.765487961573985.84073209
1076096.765487961573985.840732091076106.765487961573985.84073209
1076116.765487961573985.840732091076126.765487961573985.84073209
1076136.765487961573985.840732091076146.765487961573985.84073209
1076156.765487961573985.840732091076166.765487961573985.84073209
1076176.765487961573985.840732091076186.765487961573985.84073209
1076196.765487961573985.840732091076206.765487961573985.84073209
1076216.765487961573985.840732091076226.765487961573985.84073209
1076236.765487961573985.840732091076246.765487961573985.84073209
1076256.765487961573985.840732091076266.765487961573985.84073209
1076276.765487961573985.840732091076286.765487961573985.84073209
1076296.765487961573985.840732091076306.765487961573985.84073209
1076316.765487961573985.840732091076326.765487961573985.84073209
1076336.765487961573985.840732091076346.765487961573985.84073209
1076356.765487961573985.840732091076366.765487961573985.84073209
1076376.765487961573985.840732091076386.765487961573985.84073209
1076396.765487961573985.840732091076406.765487961573985.84073209
1076416.765487961573985.840732091076426.765487961573985.84073209
1076436.765487961573985.840732091076446.765487961573985.84073209
1076456.765487961573985.840732091076466.765487961573985.84073209
1076476.765487961573985.840732091076486.765487961573985.84073209
1076496.765487961573985.840732091076506.765487961573985.84073209