Flow Title=UnsteadyFlow1
Program Version=6.31
BEGIN FILE DESCRIPTION:
Información flujo no permanente canal natural TR - 10años
END FILE DESCRIPTION:
Use Restart= 0 
Boundary Location=River1          ,Reach1          ,1347    ,        ,                ,                ,                ,                                ,                                
Interval=1MIN
Flow Hydrograph= 7201 
     .19     .19     .19     .19     .19     .19     .19     .19     .19     .19
     .19     .19     .19     .19     .19     .19     .19     .19     .19     .19
     .19     .19     .19     .19     .19     .19     .19     .19     .19     .19
     .19     .19     .19     .19     .19     .19     .19     .19     .19     .19
     .19     .19     .19     .19     .19     .19     .19     .19     .19     .19
     .19     .19     .19     .19     .19     .19     .19     .19     .19     .19
     .19     .19     .19     .19     .19     .19     .19     .19     .19     .19
     .19     .19     .19     .19     .19     .19     .19     .19     .19     .19
     .19     .19     .19     .19     .19     .19     .19     .19     .19     .19
     .19     .19     .19     .19     .19     .19     .19     .19     .19     .19
     .19     .19     .19     .19     .19     .19     .19     .19     .19     .19
     .19     .19     .19     .19     .19     .19     .19     .19     .19     .19
     .19     .19     .19     .19     .19     .19     .19     .19     .19     .19
     .19     .19     .19     .19     .19     .19     .19     .19     .19     .19
     .19     .19     .19     .19     .19     .19     .19     .19     .19     .19
     .19     .19     .19     .19     .19     .19     .19     .19     .19     .19
     .19     .19     .19     .19     .19     .19     .19     .19     .19     .19
     .19     .19     .19     .19     .19     .19     .19     .19     .19     .19
     .19     .19     .19     .19     .19     .19     .19     .19     .19     .19
     .19     .19     .19     .19     .19     .19     .19     .19     .19     .19
     .19     .19     .19     .19     .19     .19     .19     .19     .19     .19
     .19     .19     .19     .19     .19     .19     .19     .19     .19     .19
     .19     .19     .19     .19     .19     .19     .19     .19     .19     .19
     .19     .19     .19     .19     .19     .19     .19     .19     .19     .19
     .19     .19     .19     .19     .19     .19     .19     .19     .19     .19
     .19     .19     .19     .19     .19     .19     .19     .19     .19     .19
     .19     .19     .19     .19     .19     .19     .19     .19     .19     .19
     .19     .19     .19     .19     .19     .19     .19     .19     .19     .19
     .19     .19     .19     .19     .19     .19     .19     .19     .19     .19
     .19     .19     .19     .19     .19     .19     .19     .19     .19     .19
     .19     .19     .19     .19     .19     .19     .19     .19     .19     .19
     .19     .19     .19     .19     .19     .19     .19     .19     .19     .19
     .19     .19     .19     .19     .19     .19     .19     .19     .19     .19
     .19     .19     .19     .19     .19     .19     .19     .19     .19     .19
     .19     .19     .19     .19     .19     .19     .19     .19     .19     .19
     .19     .19     .19     .19     .19     .19     .19     .19     .19     .19
     .19     .19     .19     .19     .19     .19     .19     .19     .19     .19
     .19     .19     .19     .19     .19     .19     .19     .19     .19     .19
     .19     .19     .19     .19     .19     .19     .19     .19     .19     .19
     .19     .19     .19     .19     .19     .19     .19     .19     .19     .19
     .19     .19     .19     .19     .19     .19     .19     .19     .19     .19
     .19     .19     .19     .19     .19     .19     .19     .19     .19     .19
     .19     .19     .19     .19     .19     .19     .19     .19     .19     .19
     .19     .19     .19     .19     .19     .19     .19     .19     .19     .19
     .19     .19     .19     .19     .19     .19     .19     .19     .19     .19
     .19     .19     .19     .19     .19     .19     .19     .19     .19     .19
     .19     .19     .19     .19     .19     .19     .19     .19     .19     .19
     .19     .19     .19     .19     .19     .19     .19     .19     .19     .19
     .19     .19     .19     .19     .19     .19     .19     .19     .19     .19
     .19     .19     .19     .19     .19     .19     .19     .19     .19     .19
     .19     .19     .19     .19     .19     .19     .19     .19     .19     .19
     .19     .19     .19     .19     .19     .19     .19     .19     .19     .19
     .19     .19     .19     .19     .19     .19     .19     .19     .19     .19
     .19     .19     .19     .19     .19     .19     .19     .19     .19     .19
     .19     .19     .19     .19     .19     .19     .19     .19     .19     .19
     .19     .19     .19     .19     .19     .19     .19     .19     .19     .19
     .19     .19     .19     .19     .19     .19     .19     .19     .19     .19
     .19     .19     .19     .19     .19     .19     .19     .19     .19     .19
     .19     .19     .19     .19     .19     .19     .19     .19     .19     .19
     .19     .19     .19     .19     .19     .19     .19     .19     .19     .19
     .19     .19     .19     .19     .19     .19     .19     .19     .19     .19
     .19     .19     .19     .19     .19     .19     .19     .19     .19     .19
     .19     .19     .19     .19     .19     .19     .19     .19     .18     .18
     .18     .18     .18     .18     .18     .18     .18     .18     .18     .18
     .18     .18     .18     .18     .18     .18     .18     .18     .18     .17
     .17     .17     .17     .17     .17     .17     .17     .17     .17     .17
     .17     .17     .17     .17     .17     .17     .17     .17     .17     .17
     .17     .17     .17     .17     .17     .17     .17     .17     .17     .17
     .17     .17     .17     .17     .17     .17     .17     .17     .17     .17
     .17     .17     .17     .17     .17     .17     .17     .17     .17     .17
     .17     .17     .17     .17     .17     .17     .17     .17     .17     .17
     .17     .17     .17     .17     .17     .17     .17     .17     .17     .17
     .17     .17     .17     .17     .17     .17     .17     .17     .17     .17
     .18     .18     .18     .18     .18     .18     .18     .18     .18     .18
     .18     .18     .18     .18     .18     .18     .18     .18     .18     .18
     .18     .18     .18     .18     .18     .18     .18     .18     .18     .18
     .18     .18     .18     .18     .18     .18     .18     .18     .18     .19
     .19     .19     .19     .19     .19     .19     .19     .19     .19     .19
     .19     .19     .19     .19     .19     .19     .19     .19     .19     .19
     .19     .19     .19     .19     .19     .19     .19     .19     .19     .19
     .19     .19     .19      .2      .2      .2      .2      .2      .2      .2
      .2      .2      .2      .2      .2      .2      .2      .2      .2      .2
      .2      .2      .2      .2      .2      .2      .2      .2      .2      .2
      .2      .2      .2      .2      .2      .2      .2     .21     .21     .21
     .21     .21     .21     .21     .21     .21     .21     .21     .21     .21
     .21     .21     .21     .21     .21     .21     .21     .21     .21     .21
     .21     .21     .21     .21     .21     .21     .21     .21     .21     .21
     .21     .22     .22     .22     .22     .22     .22     .22     .22     .22
     .22     .22     .22     .22     .22     .22     .22     .22     .22     .22
     .22     .22     .22     .22     .22     .22     .22     .22     .22     .22
     .22     .22     .22     .22     .22     .22     .23     .23     .23     .23
     .23     .23     .23     .23     .23     .23     .23     .23     .23     .23
     .23     .23     .23     .23     .23     .23     .23     .23     .23     .23
     .23     .23     .23     .23     .23     .23     .23     .23     .23     .23
     .23     .23     .23     .24     .24     .24     .24     .24     .24     .24
     .24     .24     .24     .24     .24     .24     .24     .24     .24     .24
     .24     .24     .24     .24     .24     .24     .24     .24     .24     .24
     .24     .24     .24     .24     .24     .24     .24     .24     .24     .24
     .24     .24     .24     .25     .25     .25     .25     .25     .25     .25
     .25     .25     .25     .25     .25     .25     .25     .25     .25     .25
     .25     .25     .25     .25     .25     .25     .25     .25     .25     .25
     .25     .25     .25     .25     .25     .25     .25     .25     .25     .25
     .25     .25     .25     .25     .25     .25     .25     .25     .26     .26
     .26     .26     .26     .26     .26     .26     .26     .26     .26     .26
     .26     .26     .26     .26     .26     .26     .26     .26     .26     .26
     .26     .26     .26     .26     .26     .26     .26     .26     .26     .26
     .26     .26     .26     .26     .26     .26     .26     .26     .26     .26
     .26     .26     .26     .26     .26     .26     .26     .27     .27     .27
     .27     .27     .27     .27     .27     .27     .27     .27     .27     .27
     .27     .27     .27     .27     .27     .27     .27     .27     .27     .27
     .27     .27     .27     .27     .27     .27     .27     .27     .27     .27
     .27     .27     .27     .27     .27     .27     .27     .27     .27     .27
     .27     .27     .27     .27     .27     .27     .27     .27     .27     .27
     .27     .27     .28     .28     .28     .28     .28     .28     .28     .28
     .28     .28     .28     .28     .28     .28     .28     .28     .28     .28
     .28     .28     .28     .28     .28     .28     .28     .28     .28     .28
     .28     .28     .28     .28     .29     .29     .29     .29     .29     .29
     .29     .29     .29     .29     .29     .29     .29     .29      .3      .3
      .3      .3      .3      .3      .3      .3      .3      .3     .31     .31
     .31     .31     .31     .31     .31     .31     .32     .32     .32     .32
     .32     .32     .32     .33     .33     .33     .33     .33     .33     .33
     .34     .34     .34     .34     .34     .34     .35     .35     .35     .35
     .35     .35     .36     .36     .36     .36     .36     .37     .37     .37
     .37     .37     .38     .38     .38     .38     .38     .39     .39     .39
     .39      .4      .4      .4      .4      .4     .41     .41     .41     .41
     .42     .42     .42     .42     .42     .43     .43     .43     .43     .44
     .44     .44     .44     .45     .45     .45     .45     .46     .46     .46
     .46     .47     .47     .47     .48     .48     .48     .48     .49     .49
     .49     .49      .5      .5      .5      .5     .51     .51     .51     .52
     .52     .52     .52     .53     .53     .53     .53     .54     .54     .54
     .55     .55     .55     .55     .56     .56     .56     .57     .57     .57
     .57     .58     .58     .58     .59     .59     .59     .59      .6      .6
      .6     .61     .61     .61     .62     .62     .62     .62     .63     .63
     .63     .64     .64     .64     .64     .65     .65     .65     .66     .66
     .66     .67     .67     .67     .67     .68     .68     .68     .69     .69
     .69     .69      .7      .7      .7     .71     .71     .71     .72     .72
     .72     .72     .73     .73     .73     .74     .74     .74     .75     .75
     .75     .75     .76     .76     .76     .77     .77     .77     .77     .78
     .78     .78     .79     .79     .79      .8      .8      .8      .8     .81
     .81     .81     .82     .82     .82     .82     .83     .83     .83     .84
     .84     .84     .84     .85     .85     .85     .86     .86     .86     .86
     .87     .87     .87     .88     .88     .88     .88     .89     .89     .89
      .9      .9      .9      .9     .91     .91     .91     .92     .92     .92
     .92     .93     .93     .93     .94     .94     .94     .94     .95     .95
     .95     .96     .96     .96     .96     .97     .97     .97     .97     .98
     .98     .98     .99     .99     .99     .99       1       1       1       1
    1.01    1.01    1.01    1.01    1.02    1.02    1.02    1.03    1.03    1.03
    1.03    1.04    1.04    1.04    1.04    1.05    1.05    1.05    1.05    1.06
    1.06    1.06    1.06    1.07    1.07    1.07    1.07    1.08    1.08    1.08
    1.08    1.09    1.09    1.09    1.09     1.1     1.1     1.1     1.1    1.11
    1.11    1.11    1.11    1.12    1.12    1.12    1.12    1.13    1.13    1.13
    1.13    1.14    1.14    1.14    1.14    1.15    1.15    1.15    1.15    1.16
    1.16    1.16    1.16    1.17    1.17    1.17    1.17    1.18    1.18    1.18
    1.18    1.18    1.19    1.19    1.19    1.19     1.2     1.2     1.2     1.2
    1.21    1.21    1.21    1.21    1.21    1.22    1.22    1.22    1.22    1.23
    1.23    1.23    1.23    1.23    1.24    1.24    1.24    1.24    1.25    1.25
    1.25    1.25    1.25    1.26    1.26    1.26    1.26    1.27    1.27    1.27
    1.27    1.27    1.28    1.28    1.28    1.28    1.28    1.29    1.29    1.29
    1.29    1.29     1.3     1.3     1.3     1.3    1.31    1.31    1.31    1.31
    1.31    1.32    1.32    1.32    1.32    1.32    1.33    1.33    1.33    1.33
    1.33    1.34    1.34    1.34    1.34    1.35    1.35    1.35    1.35    1.35
    1.36    1.36    1.36    1.36    1.36    1.37    1.37    1.37    1.37    1.38
    1.38    1.38    1.38    1.38    1.39    1.39    1.39    1.39    1.39     1.4
     1.4     1.4     1.4    1.41    1.41    1.41    1.41    1.41    1.42    1.42
    1.42    1.42    1.43    1.43    1.43    1.43    1.43    1.44    1.44    1.44
    1.44    1.44    1.45    1.45    1.45    1.45    1.46    1.46    1.46    1.46
    1.46    1.47    1.47    1.47    1.47    1.48    1.48    1.48    1.48    1.48
    1.49    1.49    1.49    1.49    1.49     1.5     1.5     1.5     1.5    1.51
    1.51    1.51    1.51    1.51    1.52    1.52    1.52    1.52    1.53    1.53
    1.53    1.53    1.53    1.54    1.54    1.54    1.54    1.54    1.55    1.55
    1.55    1.55    1.56    1.56    1.56    1.56    1.56    1.57    1.57    1.57
    1.57    1.57    1.58    1.58    1.58    1.58    1.58    1.59    1.59    1.59
    1.59     1.6     1.6     1.6     1.6     1.6    1.61    1.61    1.61    1.61
    1.61    1.62    1.62    1.62    1.62    1.62    1.63    1.63    1.63    1.63
    1.63    1.64    1.64    1.64    1.64    1.64    1.65    1.65    1.65    1.65
    1.65    1.66    1.66    1.66    1.66    1.66    1.67    1.67    1.67    1.67
    1.67    1.68    1.68    1.68    1.68    1.68    1.69    1.69    1.69    1.69
    1.69     1.7     1.7     1.7     1.7     1.7    1.71    1.71    1.71    1.71
    1.71    1.71    1.72    1.72    1.72    1.72    1.72    1.73    1.73    1.73
    1.73    1.73    1.73    1.74    1.74    1.74    1.74    1.74    1.75    1.75
    1.75    1.75    1.75    1.75    1.76    1.76    1.76    1.76    1.76    1.77
    1.77    1.77    1.77    1.77    1.77    1.78    1.78    1.78    1.78    1.78
    1.78    1.79    1.79    1.79    1.79    1.79    1.79     1.8     1.8     1.8
     1.8     1.8     1.8    1.81    1.81    1.81    1.81    1.81    1.81    1.82
    1.82    1.82    1.82    1.82    1.82    1.82    1.83    1.83    1.83    1.83
    1.83    1.83    1.84    1.84    1.84    1.84    1.84    1.84    1.84    1.85
    1.85    1.85    1.85    1.85    1.85    1.85    1.86    1.86    1.86    1.86
    1.86    1.86    1.86    1.87    1.87    1.87    1.87    1.87    1.87    1.87
    1.88    1.88    1.88    1.88    1.88    1.88    1.88    1.89    1.89    1.89
    1.89    1.89    1.89    1.89     1.9     1.9     1.9     1.9     1.9     1.9
     1.9     1.9    1.91    1.91    1.91    1.91    1.91    1.91    1.91    1.91
    1.92    1.92    1.92    1.92    1.92    1.92    1.92    1.92    1.93    1.93
    1.93    1.93    1.93    1.93    1.93    1.93    1.93    1.94    1.94    1.94
    1.94    1.94    1.94    1.94    1.94    1.95    1.95    1.95    1.95    1.95
    1.95    1.95    1.95    1.95    1.95    1.96    1.96    1.96    1.96    1.96
    1.96    1.96    1.96    1.96    1.97    1.97    1.97    1.97    1.97    1.97
    1.97    1.97    1.97    1.97    1.98    1.98    1.98    1.98    1.98    1.98
    1.98    1.98    1.98    1.98    1.99    1.99    1.99    1.99    1.99    1.99
    1.99    1.99    1.99    1.99    1.99       2       2       2       2       2
       2       2       2       2       2       2    2.01    2.01    2.01    2.01
    2.01    2.01    2.01    2.01    2.01    2.01    2.01    2.01    2.01    2.02
    2.02    2.02    2.02    2.02    2.02    2.02    2.02    2.02    2.02    2.02
    2.02    2.02    2.03    2.03    2.03    2.03    2.03    2.03    2.03    2.03
    2.03    2.03    2.03    2.03    2.03    2.04    2.04    2.04    2.04    2.04
    2.04    2.04    2.04    2.04    2.04    2.04    2.04    2.04    2.04    2.04
    2.05    2.05    2.05    2.05    2.05    2.05    2.05    2.05    2.05    2.05
    2.05    2.05    2.05    2.05    2.05    2.05    2.05    2.06    2.06    2.06
    2.06    2.06    2.06    2.06    2.06    2.06    2.06    2.06    2.06    2.06
    2.06    2.06    2.06    2.06    2.06    2.07    2.07    2.07    2.07    2.07
    2.07    2.07    2.07    2.07    2.07    2.07    2.07    2.07    2.07    2.07
    2.07    2.07    2.07    2.07    2.07    2.07    2.07    2.08    2.08    2.08
    2.08    2.08    2.08    2.08    2.08    2.08    2.08    2.08    2.08    2.08
    2.08    2.08    2.08    2.08    2.08    2.08    2.08    2.08    2.08    2.08
    2.09    2.09    2.09    2.09    2.09    2.09    2.09    2.09    2.09    2.09
    2.09    2.09    2.09    2.09    2.09    2.09    2.09    2.09    2.09    2.09
    2.09    2.09    2.09    2.09    2.09     2.1     2.1     2.1     2.1     2.1
     2.1     2.1     2.1     2.1     2.1     2.1     2.1     2.1     2.1     2.1
     2.1     2.1     2.1     2.1     2.1     2.1     2.1     2.1     2.1     2.1
     2.1     2.1    2.11    2.11    2.11    2.11    2.11    2.11    2.11    2.11
    2.11    2.11    2.11    2.11    2.11    2.11    2.11    2.11    2.11    2.11
    2.11    2.11    2.11    2.11    2.11    2.11    2.11    2.11    2.11    2.11
    2.11    2.12    2.12    2.12    2.12    2.12    2.12    2.12    2.12    2.12
    2.12    2.12    2.12    2.12    2.12    2.12    2.12    2.12    2.12    2.12
    2.12    2.12    2.12    2.12    2.12    2.12    2.12    2.12    2.12    2.12
    2.12    2.12    2.12    2.12    2.13    2.13    2.13    2.13    2.13    2.13
    2.13    2.13    2.13    2.13    2.13    2.13    2.13    2.13    2.13    2.13
    2.13    2.13    2.13    2.13    2.13    2.13    2.13    2.13    2.13    2.13
    2.13    2.13    2.13    2.13    2.13    2.13    2.13    2.13    2.13    2.13
    2.13    2.13    2.13    2.13    2.13    2.13    2.13    2.13    2.14    2.14
    2.14    2.14    2.14    2.14    2.14    2.14    2.14    2.14    2.14    2.14
    2.14    2.14    2.14    2.14    2.14    2.14    2.14    2.14    2.14    2.14
    2.14    2.14    2.14    2.14    2.14    2.14    2.14    2.14    2.14    2.14
    2.14    2.14    2.14    2.14    2.14    2.14    2.14    2.14    2.14    2.14
    2.14    2.14    2.14    2.14    2.14    2.14    2.14    2.14    2.14    2.14
    2.14    2.14    2.14    2.14    2.14    2.14    2.14    2.14    2.14    2.14
    2.14    2.14    2.14    2.14    2.14    2.14    2.14    2.14    2.14    2.14
    2.14    2.14    2.14    2.14    2.14    2.14    2.14    2.14    2.14    2.14
    2.14    2.14    2.14    2.14    2.14    2.14    2.14    2.14    2.14    2.14
    2.14    2.14    2.14    2.14    2.14    2.14    2.14    2.14    2.14    2.14
    2.14    2.14    2.14    2.14    2.14    2.14    2.14    2.14    2.14    2.14
    2.14    2.14    2.14    2.14    2.14    2.14    2.14    2.14    2.14    2.14
    2.14    2.14    2.14    2.14    2.14    2.14    2.14    2.14    2.14    2.14
    2.14    2.14    2.14    2.14    2.14    2.14    2.14    2.14    2.14    2.14
    2.14    2.14    2.14    2.14    2.14    2.14    2.14    2.14    2.14    2.14
    2.14    2.14    2.14    2.14    2.14    2.14    2.14    2.14    2.14    2.14
    2.14    2.14    2.14    2.14    2.14    2.14    2.14    2.14    2.14    2.14
    2.14    2.14    2.14    2.14    2.14    2.14    2.14    2.14    2.14    2.14
    2.14    2.14    2.14    2.14    2.13    2.13    2.13    2.13    2.13    2.13
    2.13    2.13    2.13    2.13    2.13    2.13    2.13    2.13    2.13    2.13
    2.13    2.13    2.13    2.13    2.13    2.13    2.13    2.13    2.13    2.13
    2.13    2.13    2.13    2.13    2.13    2.13    2.13    2.13    2.13    2.13
    2.13    2.13    2.13    2.13    2.13    2.13    2.13    2.13    2.13    2.13
    2.12    2.12    2.12    2.12    2.12    2.12    2.12    2.12    2.12    2.12
    2.12    2.12    2.12    2.12    2.12    2.12    2.12    2.12    2.12    2.12
    2.12    2.12    2.12    2.12    2.12    2.12    2.12    2.12    2.12    2.12
    2.12    2.12    2.12    2.12    2.12    2.12    2.11    2.11    2.11    2.11
    2.11    2.11    2.11    2.11    2.11    2.11    2.11    2.11    2.11    2.11
    2.11    2.11    2.11    2.11    2.11    2.11    2.11    2.11    2.11    2.11
    2.11    2.11    2.11    2.11    2.11    2.11     2.1     2.1     2.1     2.1
     2.1     2.1     2.1     2.1     2.1     2.1     2.1     2.1     2.1     2.1
     2.1     2.1     2.1     2.1     2.1     2.1     2.1     2.1     2.1     2.1
     2.1     2.1     2.1     2.1    2.09    2.09    2.09    2.09    2.09    2.09
    2.09    2.09    2.09    2.09    2.09    2.09    2.09    2.09    2.09    2.09
    2.09    2.09    2.09    2.09    2.09    2.09    2.09    2.09    2.09    2.08
    2.08    2.08    2.08    2.08    2.08    2.08    2.08    2.08    2.08    2.08
    2.08    2.08    2.08    2.08    2.08    2.08    2.08    2.08    2.08    2.08
    2.08    2.08    2.08    2.07    2.07    2.07    2.07    2.07    2.07    2.07
    2.07    2.07    2.07    2.07    2.07    2.07    2.07    2.07    2.07    2.07
    2.07    2.07    2.07    2.07    2.07    2.07    2.06    2.06    2.06    2.06
    2.06    2.06    2.06    2.06    2.06    2.06    2.06    2.06    2.06    2.06
    2.06    2.06    2.06    2.06    2.06    2.06    2.06    2.05    2.05    2.05
    2.05    2.05    2.05    2.05    2.05    2.05    2.05    2.05    2.05    2.05
    2.05    2.05    2.05    2.05    2.05    2.05    2.05    2.05    2.04    2.04
    2.04    2.04    2.04    2.04    2.04    2.04    2.04    2.04    2.04    2.04
    2.04    2.04    2.04    2.04    2.04    2.04    2.04    2.04    2.03    2.03
    2.03    2.03    2.03    2.03    2.03    2.03    2.03    2.03    2.03    2.03
    2.03    2.03    2.03    2.03    2.03    2.03    2.03    2.03    2.02    2.02
    2.02    2.02    2.02    2.02    2.02    2.02    2.02    2.02    2.02    2.02
    2.02    2.02    2.02    2.02    2.02    2.02    2.02    2.01    2.01    2.01
    2.01    2.01    2.01    2.01    2.01    2.01    2.01    2.01    2.01    2.01
    2.01    2.01    2.01    2.01    2.01       2       2       2       2       2
       2       2       2       2       2       2       2       2       2       2
       2       2       2       2    1.99    1.99    1.99    1.99    1.99    1.99
    1.99    1.99    1.99    1.99    1.99    1.99    1.99    1.99    1.99    1.99
    1.99    1.99    1.98    1.98    1.98    1.98    1.98    1.98    1.98    1.98
    1.98    1.98    1.98    1.98    1.98    1.98    1.98    1.98    1.98    1.97
    1.97    1.97    1.97    1.97    1.97    1.97    1.97    1.97    1.97    1.97
    1.97    1.97    1.97    1.97    1.97    1.97    1.97    1.96    1.96    1.96
    1.96    1.96    1.96    1.96    1.96    1.96    1.96    1.96    1.96    1.96
    1.96    1.96    1.96    1.96    1.95    1.95    1.95    1.95    1.95    1.95
    1.95    1.95    1.95    1.95    1.95    1.95    1.95    1.95    1.95    1.95
    1.95    1.94    1.94    1.94    1.94    1.94    1.94    1.94    1.94    1.94
    1.94    1.94    1.94    1.94    1.94    1.94    1.94    1.93    1.93    1.93
    1.93    1.93    1.93    1.93    1.93    1.93    1.93    1.93    1.93    1.93
    1.93    1.93    1.93    1.93    1.92    1.92    1.92    1.92    1.92    1.92
    1.92    1.92    1.92    1.92    1.92    1.92    1.92    1.92    1.92    1.92
    1.92    1.91    1.91    1.91    1.91    1.91    1.91    1.91    1.91    1.91
    1.91    1.91    1.91    1.91    1.91    1.91    1.91     1.9     1.9     1.9
     1.9     1.9     1.9     1.9     1.9     1.9     1.9     1.9     1.9     1.9
     1.9     1.9     1.9    1.89    1.89    1.89    1.89    1.89    1.89    1.89
    1.89    1.89    1.89    1.89    1.89    1.89    1.89    1.89    1.89    1.88
    1.88    1.88    1.88    1.88    1.88    1.88    1.88    1.88    1.88    1.88
    1.88    1.88    1.88    1.88    1.88    1.87    1.87    1.87    1.87    1.87
    1.87    1.87    1.87    1.87    1.87    1.87    1.87    1.87    1.87    1.87
    1.87    1.86    1.86    1.86    1.86    1.86    1.86    1.86    1.86    1.86
    1.86    1.86    1.86    1.86    1.86    1.86    1.86    1.85    1.85    1.85
    1.85    1.85    1.85    1.85    1.85    1.85    1.85    1.85    1.85    1.85
    1.85    1.85    1.85    1.84    1.84    1.84    1.84    1.84    1.84    1.84
    1.84    1.84    1.84    1.84    1.84    1.84    1.84    1.84    1.84    1.83
    1.83    1.83    1.83    1.83    1.83    1.83    1.83    1.83    1.83    1.83
    1.83    1.83    1.83    1.83    1.82    1.82    1.82    1.82    1.82    1.82
    1.82    1.82    1.82    1.82    1.82    1.82    1.82    1.82    1.82    1.82
    1.81    1.81    1.81    1.81    1.81    1.81    1.81    1.81    1.81    1.81
    1.81    1.81    1.81    1.81    1.81    1.81     1.8     1.8     1.8     1.8
     1.8     1.8     1.8     1.8     1.8     1.8     1.8     1.8     1.8     1.8
     1.8    1.79    1.79    1.79    1.79    1.79    1.79    1.79    1.79    1.79
    1.79    1.79    1.79    1.79    1.79    1.79    1.79    1.78    1.78    1.78
    1.78    1.78    1.78    1.78    1.78    1.78    1.78    1.78    1.78    1.78
    1.78    1.78    1.77    1.77    1.77    1.77    1.77    1.77    1.77    1.77
    1.77    1.77    1.77    1.77    1.77    1.77    1.77    1.77    1.76    1.76
    1.76    1.76    1.76    1.76    1.76    1.76    1.76    1.76    1.76    1.76
    1.76    1.76    1.76    1.75    1.75    1.75    1.75    1.75    1.75    1.75
    1.75    1.75    1.75    1.75    1.75    1.75    1.75    1.75    1.75    1.74
    1.74    1.74    1.74    1.74    1.74    1.74    1.74    1.74    1.74    1.74
    1.74    1.74    1.74    1.74    1.73    1.73    1.73    1.73    1.73    1.73
    1.73    1.73    1.73    1.73    1.73    1.73    1.73    1.73    1.73    1.73
    1.72    1.72    1.72    1.72    1.72    1.72    1.72    1.72    1.72    1.72
    1.72    1.72    1.72    1.72    1.72    1.71    1.71    1.71    1.71    1.71
    1.71    1.71    1.71    1.71    1.71    1.71    1.71    1.71    1.71    1.71
    1.71     1.7     1.7     1.7     1.7     1.7     1.7     1.7     1.7     1.7
     1.7     1.7     1.7     1.7     1.7     1.7     1.7    1.69    1.69    1.69
    1.69    1.69    1.69    1.69    1.69    1.69    1.69    1.69    1.69    1.69
    1.69    1.69    1.68    1.68    1.68    1.68    1.68    1.68    1.68    1.68
    1.68    1.68    1.68    1.68    1.68    1.68    1.68    1.68    1.67    1.67
    1.67    1.67    1.67    1.67    1.67    1.67    1.67    1.67    1.67    1.67
    1.67    1.67    1.67    1.66    1.66    1.66    1.66    1.66    1.66    1.66
    1.66    1.66    1.66    1.66    1.66    1.66    1.66    1.66    1.66    1.65
    1.65    1.65    1.65    1.65    1.65    1.65    1.65    1.65    1.65    1.65
    1.65    1.65    1.65    1.65    1.65    1.64    1.64    1.64    1.64    1.64
    1.64    1.64    1.64    1.64    1.64    1.64    1.64    1.64    1.64    1.64
    1.64    1.64    1.63    1.63    1.63    1.63    1.63    1.63    1.63    1.63
    1.63    1.63    1.63    1.63    1.63    1.63    1.63    1.63    1.63    1.63
    1.62    1.62    1.62    1.62    1.62    1.62    1.62    1.62    1.62    1.62
    1.62    1.62    1.62    1.62    1.62    1.62    1.62    1.62    1.61    1.61
    1.61    1.61    1.61    1.61    1.61    1.61    1.61    1.61    1.61    1.61
    1.61    1.61    1.61    1.61    1.61    1.61    1.61     1.6     1.6     1.6
     1.6     1.6     1.6     1.6     1.6     1.6     1.6     1.6     1.6     1.6
     1.6     1.6     1.6     1.6     1.6     1.6     1.6     1.6    1.59    1.59
    1.59    1.59    1.59    1.59    1.59    1.59    1.59    1.59    1.59    1.59
    1.59    1.59    1.59    1.59    1.59    1.59    1.59    1.59    1.59    1.58
    1.58    1.58    1.58    1.58    1.58    1.58    1.58    1.58    1.58    1.58
    1.58    1.58    1.58    1.58    1.58    1.58    1.58    1.58    1.58    1.58
    1.58    1.58    1.57    1.57    1.57    1.57    1.57    1.57    1.57    1.57
    1.57    1.57    1.57    1.57    1.57    1.57    1.57    1.57    1.57    1.57
    1.57    1.57    1.57    1.57    1.57    1.56    1.56    1.56    1.56    1.56
    1.56    1.56    1.56    1.56    1.56    1.56    1.56    1.56    1.56    1.56
    1.56    1.56    1.56    1.56    1.56    1.56    1.56    1.56    1.56    1.55
    1.55    1.55    1.55    1.55    1.55    1.55    1.55    1.55    1.55    1.55
    1.55    1.55    1.55    1.55    1.55    1.55    1.55    1.55    1.55    1.55
    1.55    1.55    1.55    1.55    1.54    1.54    1.54    1.54    1.54    1.54
    1.54    1.54    1.54    1.54    1.54    1.54    1.54    1.54    1.54    1.54
    1.54    1.54    1.54    1.54    1.54    1.54    1.54    1.54    1.54    1.53
    1.53    1.53    1.53    1.53    1.53    1.53    1.53    1.53    1.53    1.53
    1.53    1.53    1.53    1.53    1.53    1.53    1.53    1.53    1.53    1.53
    1.53    1.53    1.53    1.53    1.53    1.52    1.52    1.52    1.52    1.52